# Format:          MT3DResp_1.0
# Description:     Response file generated at Sat 26 Dec 2020 12:30:34 PM CST
Phase Convention:    lead
Receiver Location (m):      54
#          X            Y            Z
        0.00    -60000.00         0.00
        0.00    -40000.00         0.00
        0.00    -30000.00         0.00
        0.00    -25000.00         0.00
        0.00    -22500.00         0.00
        0.00    -21500.00         0.00
        0.00    -20500.00         0.00
        0.00    -19500.00         0.00
        0.00    -18500.00         0.00
        0.00    -17500.00         0.00
        0.00    -16500.00         0.00
        0.00    -15500.00         0.00
        0.00    -14500.00         0.00
        0.00    -13500.00         0.00
        0.00    -12500.00         0.00
        0.00    -11500.00         0.00
        0.00    -10500.00         0.00
        0.00     -9500.00         0.00
        0.00     -8500.00         0.00
        0.00     -7500.00         0.00
        0.00     -6500.00         0.00
        0.00     -5500.00         0.00
        0.00     -4500.00         0.00
        0.00     -3500.00         0.00
        0.00     -2500.00         0.00
        0.00     -1500.00         0.00
        0.00      -500.00         0.00
        0.00       500.00         0.00
        0.00      1500.00         0.00
        0.00      2500.00         0.00
        0.00      3500.00         0.00
        0.00      4500.00         0.00
        0.00      5500.00         0.00
        0.00      6500.00         0.00
        0.00      7500.00         0.00
        0.00      8500.00         0.00
        0.00      9500.00         0.00
        0.00     10500.00         0.00
        0.00     11500.00         0.00
        0.00     12500.00         0.00
        0.00     13500.00         0.00
        0.00     14500.00         0.00
        0.00     15500.00         0.00
        0.00     16500.00         0.00
        0.00     17500.00         0.00
        0.00     18500.00         0.00
        0.00     19500.00         0.00
        0.00     20500.00         0.00
        0.00     21500.00         0.00
        0.00     22500.00         0.00
        0.00     25000.00         0.00
        0.00     30000.00         0.00
        0.00     40000.00         0.00
        0.00     60000.00         0.00
Frequencies (Hz):       4
    1.00000e-04
    1.00000e-02
    1.00000e+00
    1.00000e+02
DataType:  Rho_Phs
DataComp:     4
RhoXY
PhsXY
RhoYX
PhsYX
Data Block:     216
# FreqNo.  RxNo.        RhoXX         PhsXX         RhoXY         PhsXY         RhoYX         PhsYX         RhoYY         PhsYY
     1        1          0.00        170.51          1.00         76.49          1.11       -103.68          0.00        -14.64
     1        2          0.00         -7.12          0.76         76.91          1.15       -103.72          0.00        167.50
     1        3          0.00        -21.51          0.51         77.50          1.22       -103.72          0.00        -16.34
     1        4          0.00        168.52          0.35         78.04          1.28       -103.57          0.00        167.74
     1        5          0.00        165.53          0.27         78.38          1.35       -103.33          0.00        -12.16
     1        6          0.00        164.63          0.24         78.51          1.39       -103.16          0.00        -11.69
     1        7          0.00        164.70          0.21         78.57          1.45       -102.89          0.00        -12.64
     1        8          0.00         10.51          0.20         78.43          0.02       -100.38          0.00        -12.41
     1        9          0.00        145.75          0.19         78.22          0.03        -98.94          0.00        168.75
     1       10          0.00        140.79          0.19         78.09          0.04        -98.22          0.00        162.98
     1       11          0.00        173.85          0.19         78.01          0.04        -97.77          0.00         -8.40
     1       12          0.00        -13.54          0.19         77.96          0.04        -97.47          0.00        161.91
     1       13          0.00       -136.83          0.19         77.93          0.05        -97.24          0.00        165.49
     1       14          0.00       -174.27          0.18         77.91          0.05        -97.05          0.00        163.46
     1       15          0.00         -4.65          0.18         77.90          0.05        -96.89          0.00         -8.37
     1       16          0.00          0.62          0.18         77.90          0.05        -96.73          0.00        -14.92
     1       17          0.00        175.80          0.18         77.91          0.05        -96.56          0.00        173.65
     1       18          0.00       -163.54          0.18         77.93          0.04        -96.40          0.00        164.03
     1       19          0.00        163.36          0.18         77.96          0.04        -96.22          0.00        -10.77
     1       20          0.00        163.95          0.18         78.00          0.04        -96.04          0.00        169.84
     1       21          0.00         25.29          0.18         78.05          0.04        -95.85          0.00        166.26
     1       22          0.00         23.19          0.18         78.11          0.03        -95.66          0.00        -12.23
     1       23          0.00        176.11          0.18         78.19          0.03        -95.47          0.00        -12.67
     1       24          0.00        161.69          0.18         78.29          0.02        -95.32          0.00          3.16
     1       25          0.00        165.54          0.18         78.41          0.02        -95.25          0.00        174.22
     1       26          0.00        172.36          0.18         78.59          0.01        -95.43          0.00        -12.68
     1       27          0.00        167.72          0.18         78.86          0.00        -96.73          0.00        -27.09
     1       28          0.00        165.20          0.21         78.89          6.69       -103.92          0.00         -0.75
     1       29          0.00        165.53          0.26         78.63          6.47       -104.00          0.00        174.45
     1       30          0.00        165.46          0.32         78.36          6.28       -104.09          0.00        169.32
     1       31          0.00        -12.51          0.38         78.13          6.11       -104.15          0.00        -11.53
     1       32          0.00        -14.56          0.44         77.94          5.96       -104.19          0.00        -12.49
     1       33          0.00        166.31          0.51         77.77          5.82       -104.21          0.00        167.57
     1       34          0.00        -14.34          0.58         77.63          5.70       -104.23          0.00        165.99
     1       35          0.00        -14.32          0.64         77.50          5.61       -104.23          0.00        -12.47
     1       36          0.00        -13.82          0.70         77.40          5.55       -104.24          0.00        167.43
     1       37          0.00        -14.19          0.76         77.31          5.52       -104.24          0.00        166.37
     1       38          0.00        166.59          0.82         77.23          5.52       -104.24          0.00        164.58
     1       39          0.00        166.09          0.87         77.15          5.56       -104.24          0.00        169.42
     1       40          0.00        166.77          0.92         77.09          5.63       -104.23          0.00         -9.43
     1       41          0.00        -15.98          0.96         77.03          5.73       -104.23          0.00         11.89
     1       42          0.00        162.96          1.00         76.97          5.87       -104.22          0.00        175.67
     1       43          0.00        166.50          1.04         76.92          6.04       -104.20          0.00        -11.92
     1       44          0.00        -34.14          1.07         76.86          6.25       -104.17          0.00        -14.68
     1       45          0.00        -13.57          1.10         76.80          6.49       -104.13          0.00        165.78
     1       46          0.00        -14.27          1.12         76.74          6.77       -104.06          0.00        168.89
     1       47          0.00        -14.33          1.15         76.65          7.11       -103.95          0.00        -10.56
     1       48          0.00        166.62          1.16         76.55          0.10       -102.74          0.00        -13.67
     1       49          0.00        167.77          1.16         76.49          0.14       -102.15          0.00        166.72
     1       50          0.00        169.00          1.16         76.45          0.19       -101.98          0.00        -13.76
     1       51          0.00        168.33          1.16         76.40          0.29       -102.03          0.00        -13.46
     1       52          0.00        -23.29          1.15         76.35          0.47       -102.47          0.00        -14.20
     1       53          0.00          7.08          1.12         76.33          0.73       -103.04          0.00         -6.42
     1       54          0.00        166.78          1.11         76.32          0.94       -103.41          0.00        165.82
     2        1          0.00        -44.48         15.71         39.94         15.67       -141.55          0.00        -64.55
     2        2          0.00        -66.27         14.26         44.10         15.79       -142.11          0.00       -124.21
     2        3          0.00        144.81         11.08         49.33         16.30       -142.78          0.00        138.55
     2        4          0.00        -16.41          7.76         52.35         17.21       -143.00          0.00        136.26
     2        5          0.00         76.64          5.44         52.35         18.43       -142.68          0.00        -39.55
     2        6          0.00        100.26          4.41         51.17         19.29       -142.29          0.00        -57.00
     2        7          0.00        105.11          3.22         47.64         20.71       -141.35          0.00        -55.45
     2        8          0.00        118.09          2.26         42.43          0.43       -128.82          0.00        143.83
     2        9          0.00        -84.81          1.76         39.05          0.68       -127.17          0.00        -27.91
     2       10          0.00        132.99          1.51         37.75          0.86       -127.71          0.00        -47.17
     2       11          0.00        108.98          1.34         37.20          0.98       -128.62          0.00        -13.13
     2       12          0.00         25.46          1.23         37.04          1.06       -129.47          0.00        134.28
     2       13          0.00        143.83          1.15         37.08          1.11       -130.16          0.00        -51.59
     2       14          0.00       -174.81          1.10         37.23          1.15       -130.63          0.00         82.78
     2       15          0.00       -135.99          1.06         37.40          1.18       -130.88          0.00        173.88
     2       16          0.00        -99.75          1.05         37.55          1.19       -130.90          0.00        -56.00
     2       17          0.00       -156.89          1.04         37.64          1.20       -130.70          0.00        147.66
     2       18          0.00       -168.43          1.05         37.67          1.20       -130.26          0.00        118.17
     2       19          0.00        -72.77          1.07         37.64          1.19       -129.56          0.00        -76.48
     2       20          0.00        142.02          1.11         37.59          1.17       -128.60          0.00         -7.89
     2       21          0.00        133.83          1.16         37.56          1.13       -127.33          0.00        -88.91
     2       22          0.00        -28.73          1.24         37.61          1.08       -125.71          0.00        -41.97
     2       23          0.00        -24.25          1.35         37.83          0.99       -123.70          0.00        117.39
     2       24          0.00        125.12          1.49         38.38          0.87       -121.24          0.00       -160.43
     2       25          0.00        125.94          1.71         39.46          0.69       -118.31          0.00         -0.65
     2       26          0.00        122.01          2.04         41.55          0.45       -114.94          0.00        -49.33
     2       27          0.00        116.48          2.71         46.41          0.17       -111.97          0.00        -45.17
     2       28          0.00        -57.30          4.20         53.66        132.59       -134.36          0.00        -57.74
     2       29          0.00        161.85          6.30         58.75        138.17       -132.24          0.00        135.29
     2       30          0.00        140.51          8.46         61.13        134.67       -132.21          0.00        143.47
     2       31          0.00        -58.42         10.71         62.41        131.69       -132.11          0.00        151.22
     2       32          0.00        -44.05         13.00         63.05        129.08       -131.97          0.00        142.40
     2       33          0.00        -43.00         15.26         63.30        126.85       -131.81          0.00        -28.29
     2       34          0.00        136.20         17.45         63.27        125.03       -131.65          0.00        -27.37
     2       35          0.00        -25.46         19.51         63.06        123.70       -131.50          0.00        -27.56
     2       36          0.00        -38.89         21.41         62.71        122.92       -131.36          0.00        -36.69
     2       37          0.00        -30.12         23.12         62.26        122.74       -131.24          0.00        -17.45
     2       38          0.00        135.99         24.61         61.70        123.20       -131.15          0.00        152.36
     2       39          0.00        139.21         25.86         61.06        124.32       -131.08          0.00        142.57
     2       40          0.00        139.44         26.86         60.32        126.15       -131.04          0.00        144.74
     2       41          0.00        -39.82         27.59         59.49        128.68       -131.02          0.00        -22.20
     2       42          0.00        -38.62         28.04         58.53        131.92       -131.01          0.00        -79.58
     2       43          0.00        -24.14         28.20         57.41        135.90       -131.01          0.00         56.72
     2       44          0.00        115.99         28.06         56.11        140.61       -130.99          0.00        173.69
     2       45          0.00        132.49         27.58         54.55        146.13       -130.94          0.00        -40.96
     2       46          0.00        138.25         26.70         52.61        152.65       -130.81          0.00        106.50
     2       47          0.00        -56.75         25.14         49.89        160.80       -130.51          0.00        150.17
     2       48          0.00         10.96         23.11         46.84          2.53       -125.27          0.00        -41.73
     2       49          0.00        135.24         21.60         44.74          3.78       -123.88          0.00        -72.39
     2       50          0.00        142.59         20.72         43.50          4.89       -124.11          0.00        -73.36
     2       51          0.00        164.32         19.37         41.61          7.28       -126.05          0.00         25.71
     2       52          0.00       -165.98         18.00         39.87         10.51       -130.26          0.00        118.15
     2       53          0.00        -13.35         16.75         38.77         13.69       -135.38          0.00        131.03
     2       54          0.00        -31.55         15.89         38.46         15.29       -139.07          0.00        -50.81
     3        1          0.00        125.04          9.92         45.01          9.92       -134.99          0.00       -168.08
     3        2          0.00        -73.96          9.92         45.01          9.92       -134.99          0.00         83.87
     3        3          0.00        131.89          9.93         45.03          9.92       -134.99          0.00          3.04
     3        4          0.00        131.01         10.02         45.42          9.90       -134.99          0.00        -12.62
     3        5          0.00        178.55          9.79         47.87          9.86       -135.24          0.00        -23.48
     3        6          0.00       -130.86          8.59         50.61          9.83       -135.70          0.00        -15.13
     3        7          0.00       -118.30          4.02         49.02         10.36       -137.37          0.00        -54.40
     3        8          0.00        159.48          1.43         42.11          1.02       -130.20          0.00         63.44
     3        9          0.00         58.85          0.99         43.61          1.00       -135.09          0.00        135.47
     3       10          0.00       -131.02          0.99         44.65          0.99       -135.23          0.00         43.34
     3       11          0.00        -48.76          0.99         44.76          0.99       -135.21          0.00       -142.55
     3       12          0.00         27.05          0.99         44.78          0.99       -135.21          0.00       -111.45
     3       13          0.00         87.02          0.99         44.78          0.99       -135.21          0.00        144.77
     3       14          0.00         43.10          0.99         44.78          0.99       -135.21          0.00         57.80
     3       15          0.00       -114.36          0.99         44.79          0.99       -135.21          0.00        130.40
     3       16          0.00       -139.23          0.99         44.79          0.99       -135.21          0.00        -18.94
     3       17          0.00        115.09          0.99         44.79          0.99       -135.21          0.00         90.54
     3       18          0.00        120.47          0.99         44.78          0.99       -135.21          0.00         38.03
     3       19          0.00        -25.12          0.99         44.78          0.99       -135.21          0.00         84.83
     3       20          0.00        -61.12          0.99         44.78          0.99       -135.21          0.00        -68.28
     3       21          0.00       -149.70          0.99         44.78          0.99       -135.21          0.00         18.10
     3       22          0.00       -136.51          0.99         44.77          0.99       -135.21          0.00         23.67
     3       23          0.00        -19.72          0.99         44.76          0.99       -135.21          0.00         -4.31
     3       24          0.00        -44.60          0.99         44.73          0.99       -135.21          0.00       -149.53
     3       25          0.00         50.11          0.98         44.50          0.99       -135.24          0.00         28.37
     3       26          0.00         38.59          1.00         42.68          1.00       -134.98          0.00        110.24
     3       27          0.00        178.89          1.71         40.27          0.95       -129.69          0.00         63.87
     3       28          0.00         40.99          7.99         54.64         55.39       -150.54          0.00       -136.74
     3       29          0.00        -35.22         35.00         63.91        101.80       -136.13          0.00        -17.77
     3       30          0.00        -49.03         60.05         60.88        100.38       -135.66          0.00        126.56
     3       31          0.00       -110.22         77.57         57.42         99.94       -135.39          0.00         28.26
     3       32          0.00       -153.92         88.91         54.62         99.83       -135.22          0.00        131.90
     3       33          0.00        166.18         96.05         52.48         99.84       -135.12          0.00        -33.27
     3       34          0.00        161.58        100.45         50.89         99.87       -135.07          0.00        -45.68
     3       35          0.00        -48.60        103.08         49.74         99.89       -135.05          0.00        147.65
     3       36          0.00        -51.96        104.54         48.96         99.87       -135.05          0.00         53.96
     3       37          0.00        -11.42        105.19         48.49         99.82       -135.07          0.00        -41.89
     3       38          0.00         80.75        105.20         48.30         99.72       -135.12          0.00        148.22
     3       39          0.00        136.42        104.63         48.37         99.61       -135.20          0.00        -38.89
     3       40          0.00        153.77        103.39         48.71         99.51       -135.32          0.00        -88.50
     3       41          0.00        -63.00        101.26         49.30         99.48       -135.50          0.00        131.52
     3       42          0.00        -55.02         97.87         50.17         99.63       -135.76          0.00        144.36
     3       43          0.00         89.22         92.60         51.29        100.17       -136.12          0.00        -14.70
     3       44          0.00        130.57         84.59         52.61        101.51       -136.62          0.00        -48.55
     3       45          0.00        -66.75         72.70         53.85        104.46       -137.24          0.00        132.59
     3       46          0.00       -176.31         55.83         54.09        110.98       -137.90          0.00        -85.34
     3       47          0.00        158.04         33.02         49.19        126.86       -138.02          0.00         25.42
     3       48          0.00       -103.51         17.10         41.87          6.72       -123.82          0.00        -46.97
     3       49          0.00       -123.11         11.60         40.20          9.57       -129.62          0.00        103.86
     3       50          0.00       -131.74         10.24         41.66         10.00       -132.66          0.00       -127.85
     3       51          0.00         88.93          9.79         44.40         10.04       -134.73          0.00        -85.20
     3       52          0.00        -31.15          9.90         44.98          9.93       -135.01          0.00        148.74
     3       53          0.00        144.01          9.92         45.01          9.92       -134.99          0.00        141.44
     3       54          0.00         42.74          9.92         45.01          9.92       -134.99          0.00         46.26
     4        1          0.00       -163.78          9.93         43.85          9.93       -136.15          0.00         71.57
     4        2          0.00         93.80          9.93         43.85          9.93       -136.15          0.00       -136.57
     4        3          0.00        177.53          9.93         43.85          9.93       -136.15          0.00        -90.59
     4        4          0.00         89.22          9.93         43.85          9.93       -136.15          0.00       -119.54
     4        5          0.00        117.78          9.93         43.86          9.93       -136.15          0.00        -35.85
     4        6          0.00        106.62          9.92         43.98          9.93       -136.15          0.00         -5.63
     4        7          0.00         69.44          6.16         48.00          9.93       -136.19          0.00        170.32
     4        8          0.00       -156.97          1.04         30.64          1.86       -130.40          0.00         16.43
     4        9          0.00       -156.27          0.90         31.86          0.90       -148.13          0.00       -122.91
     4       10          0.00       -176.85          0.90         31.87          0.90       -148.13          0.00         25.71
     4       11          0.00       -154.85          0.90         31.87          0.90       -148.13          0.00         10.48
     4       12          0.00       -153.91          0.90         31.87          0.90       -148.13          0.00        -22.29
     4       13          0.00        140.00          0.90         31.87          0.90       -148.13          0.00        144.12
     4       14          0.00         72.70          0.90         31.87          0.90       -148.13          0.00        148.32
     4       15          0.00         36.14          0.90         31.87          0.90       -148.13          0.00       -168.18
     4       16          0.00         37.97          0.90         31.87          0.90       -148.13          0.00         36.18
     4       17          0.00        167.40          0.90         31.87          0.90       -148.13          0.00       -144.39
     4       18          0.00       -126.97          0.90         31.87          0.90       -148.13          0.00         34.94
     4       19          0.00        -32.07          0.90         31.87          0.90       -148.13          0.00         17.24
     4       20          0.00         -3.63          0.90         31.87          0.90       -148.13          0.00         43.30
     4       21          0.00         42.27          0.90         31.87          0.90       -148.13          0.00         30.49
     4       22          0.00       -120.60          0.90         31.87          0.90       -148.13          0.00       -144.03
     4       23          0.00        -65.24          0.90         31.87          0.90       -148.13          0.00         41.94
     4       24          0.00       -131.57          0.90         31.87          0.90       -148.13          0.00         11.87
     4       25          0.00       -121.49          0.90         31.87          0.90       -148.13          0.00         16.05
     4       26          0.00        -84.96          0.90         31.85          0.90       -148.13          0.00         22.81
     4       27          0.00        -50.10          1.07         30.06          0.90       -148.06          0.00        160.89
     4       28          0.00         53.94         34.47         56.90          3.43       -172.47          0.00         19.73
     4       29          0.00        123.97         98.25         46.39         98.96       -135.21          0.00        102.54
     4       30          0.00       -173.80         99.42         44.98         98.97       -135.21          0.00         46.02
     4       31          0.00       -150.22         99.10         44.82         98.97       -135.21          0.00         19.80
     4       32          0.00         51.64         99.01         44.80         98.97       -135.21          0.00       -142.31
     4       33          0.00        106.24         98.99         44.80         98.97       -135.21          0.00        139.08
     4       34          0.00        157.23         98.98         44.79         98.97       -135.21          0.00         11.74
     4       35          0.00         72.97         98.98         44.79         98.97       -135.21          0.00         65.00
     4       36          0.00         64.57         98.97         44.79         98.97       -135.21          0.00         20.82
     4       37          0.00        157.76         98.97         44.79         98.97       -135.21          0.00        125.93
     4       38          0.00       -168.75         98.97         44.79         98.97       -135.21          0.00        -23.37
     4       39          0.00        -44.65         98.97         44.79         98.97       -135.21          0.00         51.25
     4       40          0.00          9.76         98.97         44.79         98.97       -135.21          0.00        -24.87
     4       41          0.00          7.85         98.98         44.79         98.97       -135.21          0.00         -3.57
     4       42          0.00         30.49         98.98         44.79         98.97       -135.21          0.00        135.36
     4       43          0.00         23.45         99.00         44.80         98.97       -135.21          0.00       -160.12
     4       44          0.00       -101.32         99.06         44.81         98.97       -135.21          0.00         63.25
     4       45          0.00       -156.78         99.30         44.92         98.97       -135.21          0.00       -107.83
     4       46          0.00        135.73         98.26         45.97         98.92       -135.21          0.00         75.92
     4       47          0.00        -96.83         49.91         48.73         99.08       -135.54          0.00        -78.40
     4       48          0.00       -156.52         12.92         41.83         11.99       -129.97          0.00         67.32
     4       49          0.00       -125.49          9.93         43.74          9.93       -136.15          0.00         45.40
     4       50          0.00       -127.74          9.93         43.85          9.93       -136.15          0.00         39.22
     4       51          0.00       -137.12          9.93         43.85          9.93       -136.15          0.00         40.87