# Format:          MT3DResp_1.0
# Description:     Response file generated at Tue 28 Apr 2020 04:24:07 PM CST
Phase Convention:    lead
Receiver Location (m):      55
#          X            Y            Z
    -8000.00    -10000.00         0.00
    -8000.00     -8000.00         0.00
    -8000.00     -6000.00         0.00
    -8000.00     -4000.00         0.00
    -8000.00     -2000.00         0.00
    -8000.00         0.00         0.00
    -8000.00      2000.00         0.00
    -8000.00      4000.00         0.00
    -8000.00      6000.00         0.00
    -8000.00      8000.00         0.00
    -8000.00     10000.00         0.00
    -4000.00    -10000.00         0.00
    -4000.00     -8000.00         0.00
    -4000.00     -6000.00         0.00
    -4000.00     -4000.00         0.00
    -4000.00     -2000.00         0.00
    -4000.00         0.00         0.00
    -4000.00      2000.00         0.00
    -4000.00      4000.00         0.00
    -4000.00      6000.00         0.00
    -4000.00      8000.00         0.00
    -4000.00     10000.00         0.00
        0.00    -10000.00         0.00
        0.00     -8000.00         0.00
        0.00     -6000.00         0.00
        0.00     -4000.00         0.00
        0.00     -2000.00         0.00
        0.00         0.00         0.00
        0.00      2000.00         0.00
        0.00      4000.00         0.00
        0.00      6000.00         0.00
        0.00      8000.00         0.00
        0.00     10000.00         0.00
     4000.00    -10000.00         0.00
     4000.00     -8000.00         0.00
     4000.00     -6000.00         0.00
     4000.00     -4000.00         0.00
     4000.00     -2000.00         0.00
     4000.00         0.00         0.00
     4000.00      2000.00         0.00
     4000.00      4000.00         0.00
     4000.00      6000.00         0.00
     4000.00      8000.00         0.00
     4000.00     10000.00         0.00
     8000.00    -10000.00         0.00
     8000.00     -8000.00         0.00
     8000.00     -6000.00         0.00
     8000.00     -4000.00         0.00
     8000.00     -2000.00         0.00
     8000.00         0.00         0.00
     8000.00      2000.00         0.00
     8000.00      4000.00         0.00
     8000.00      6000.00         0.00
     8000.00      8000.00         0.00
     8000.00     10000.00         0.00
Frequencies (Hz):      31
    1.00000e+02
    6.30957e+01
    3.98107e+01
    2.51189e+01
    1.58489e+01
    1.00000e+01
    6.30957e+00
    3.98107e+00
    2.51189e+00
    1.58489e+00
    1.00000e+00
    6.30957e-01
    3.98107e-01
    2.51189e-01
    1.58489e-01
    1.00000e-01
    6.30957e-02
    3.98107e-02
    2.51189e-02
    1.58489e-02
    1.00000e-02
    6.30957e-03
    3.98107e-03
    2.51189e-03
    1.58489e-03
    1.00000e-03
    6.30957e-04
    3.98107e-04
    2.51189e-04
    1.58489e-04
    1.00000e-04
DataType:  Rho_Phs
DataComp:     4
RhoXY
PhsXY
RhoYX
PhsYX
Data Block:     1705
# FreqNo.  RxNo.        RhoXX         PhsXX         RhoXY         PhsXY         RhoYX         PhsYX         RhoYY         PhsYY
     1        1          0.77        178.30      10371.32         43.90       9947.64       -134.85          0.77         -1.70
     1        2          0.77        178.30      10371.32         43.90       9947.64       -134.85          0.77         -1.70
     1        3          0.77        178.30      10371.32         43.90       9947.64       -134.85          0.77         -1.70
     1        4          0.77        178.30      10371.32         43.90       9947.64       -134.85          0.77         -1.70
     1        5          0.77        178.30      10371.32         43.90       9947.64       -134.85          0.77         -1.70
     1        6          0.77        178.30      10371.32         43.90       9947.64       -134.85          0.77         -1.70
     1        7          0.77        178.30      10371.32         43.90       9947.64       -134.85          0.77         -1.70
     1        8          0.77        178.30      10371.32         43.90       9947.64       -134.85          0.77         -1.70
     1        9          0.77        178.30      10371.32         43.90       9947.64       -134.85          0.77         -1.70
     1       10          0.77        178.30      10371.32         43.90       9947.64       -134.85          0.77         -1.70
     1       11          0.77        178.30      10371.32         43.90       9947.64       -134.85          0.77         -1.70
     1       12          0.77        178.30      10371.32         43.90       9947.64       -134.85          0.77         -1.70
     1       13          0.77        178.30      10371.32         43.90       9947.64       -134.85          0.77         -1.70
     1       14          0.77        178.30      10371.32         43.90       9947.64       -134.85          0.77         -1.70
     1       15          0.77        178.30      10371.32         43.90       9947.64       -134.85          0.77         -1.70
     1       16          0.77        178.30      10371.32         43.90       9947.64       -134.85          0.77         -1.70
     1       17          0.77        178.30      10371.32         43.90       9947.64       -134.85          0.77         -1.70
     1       18          0.77        178.30      10371.32         43.90       9947.64       -134.85          0.77         -1.70
     1       19          0.77        178.30      10371.32         43.90       9947.64       -134.85          0.77         -1.70
     1       20          0.77        178.30      10371.32         43.90       9947.64       -134.85          0.77         -1.70
     1       21          0.77        178.30      10371.32         43.90       9947.64       -134.85          0.77         -1.70
     1       22          0.77        178.30      10371.32         43.90       9947.64       -134.85          0.77         -1.70
     1       23          0.77        178.30      10371.32         43.90       9947.64       -134.85          0.77         -1.70
     1       24          0.77        178.30      10371.32         43.90       9947.64       -134.85          0.77         -1.70
     1       25          0.77        178.30      10371.32         43.90       9947.64       -134.85          0.77         -1.70
     1       26          0.77        178.30      10371.32         43.90       9947.64       -134.85          0.77         -1.70
     1       27          0.77        178.30      10371.32         43.90       9947.64       -134.85          0.77         -1.70
     1       28          0.77        178.30      10371.32         43.90       9947.64       -134.85          0.77         -1.70
     1       29          0.77        178.30      10371.32         43.90       9947.64       -134.85          0.77         -1.70
     1       30          0.77        178.30      10371.32         43.90       9947.64       -134.85          0.77         -1.70
     1       31          0.77        178.30      10371.32         43.90       9947.64       -134.85          0.77         -1.70
     1       32          0.77        178.30      10371.32         43.90       9947.64       -134.85          0.77         -1.70
     1       33          0.77        178.30      10371.32         43.90       9947.64       -134.85          0.77         -1.70
     1       34          0.77        178.30      10371.32         43.90       9947.64       -134.85          0.77         -1.70
     1       35          0.77        178.30      10371.32         43.90       9947.64       -134.85          0.77         -1.70
     1       36          0.77        178.30      10371.32         43.90       9947.64       -134.85          0.77         -1.70
     1       37          0.77        178.30      10371.32         43.90       9947.64       -134.85          0.77         -1.70
     1       38          0.77        178.30      10371.32         43.90       9947.64       -134.85          0.77         -1.70
     1       39          0.77        178.30      10371.32         43.90       9947.64       -134.85          0.77         -1.70
     1       40          0.77        178.30      10371.32         43.90       9947.64       -134.85          0.77         -1.70
     1       41          0.77        178.30      10371.32         43.90       9947.64       -134.85          0.77         -1.70
     1       42          0.77        178.30      10371.32         43.90       9947.64       -134.85          0.77         -1.70
     1       43          0.77        178.30      10371.32         43.90       9947.64       -134.85          0.77         -1.70
     1       44          0.77        178.30      10371.32         43.90       9947.64       -134.85          0.77         -1.70
     1       45          0.77        178.30      10371.32         43.90       9947.64       -134.85          0.77         -1.70
     1       46          0.77        178.30      10371.32         43.90       9947.64       -134.85          0.77         -1.70
     1       47          0.77        178.30      10371.32         43.90       9947.64       -134.85          0.77         -1.70
     1       48          0.77        178.30      10371.32         43.90       9947.64       -134.85          0.77         -1.70
     1       49          0.77        178.30      10371.32         43.90       9947.64       -134.85          0.77         -1.70
     1       50          0.77        178.30      10371.32         43.90       9947.64       -134.85          0.77         -1.70
     1       51          0.77        178.30      10371.32         43.90       9947.64       -134.85          0.77         -1.70
     1       52          0.77        178.30      10371.32         43.90       9947.64       -134.85          0.77         -1.70
     1       53          0.77        178.30      10371.32         43.90       9947.64       -134.85          0.77         -1.70
     1       54          0.77        178.30      10371.32         43.90       9947.64       -134.85          0.77         -1.70
     1       55          0.77        178.30      10371.32         43.90       9947.64       -134.85          0.77         -1.70
     2        1          4.14       -135.29      11253.53         45.01       9808.24       -134.97          4.14         44.71
     2        2          4.14       -135.29      11253.53         45.01       9808.24       -134.97          4.14         44.71
     2        3          4.14       -135.29      11253.53         45.01       9808.24       -134.97          4.14         44.71
     2        4          4.14       -135.29      11253.53         45.01       9808.23       -134.97          4.14         44.71
     2        5          4.14       -135.29      11253.53         45.01       9808.23       -134.97          4.14         44.71
     2        6          4.14       -135.29      11253.53         45.01       9808.23       -134.97          4.14         44.71
     2        7          4.14       -135.29      11253.53         45.01       9808.23       -134.97          4.14         44.71
     2        8          4.14       -135.29      11253.53         45.01       9808.24       -134.97          4.14         44.71
     2        9          4.14       -135.29      11253.53         45.01       9808.24       -134.97          4.14         44.71
     2       10          4.14       -135.29      11253.53         45.01       9808.24       -134.97          4.14         44.71
     2       11          4.14       -135.29      11253.53         45.01       9808.24       -134.97          4.14         44.71
     2       12          4.14       -135.29      11253.53         45.01       9808.24       -134.97          4.14         44.71
     2       13          4.14       -135.29      11253.53         45.01       9808.24       -134.97          4.14         44.71
     2       14          4.14       -135.29      11253.53         45.01       9808.23       -134.97          4.14         44.71
     2       15          4.14       -135.29      11253.53         45.01       9808.23       -134.97          4.14         44.71
     2       16          4.14       -135.29      11253.53         45.01       9808.23       -134.97          4.14         44.71
     2       17          4.14       -135.29      11253.53         45.01       9808.23       -134.97          4.14         44.71
     2       18          4.14       -135.29      11253.53         45.01       9808.23       -134.97          4.14         44.71
     2       19          4.14       -135.29      11253.53         45.01       9808.23       -134.97          4.14         44.71
     2       20          4.14       -135.29      11253.53         45.01       9808.23       -134.97          4.14         44.71
     2       21          4.14       -135.29      11253.53         45.01       9808.24       -134.97          4.14         44.71
     2       22          4.14       -135.29      11253.53         45.01       9808.24       -134.97          4.14         44.71
     2       23          4.14       -135.29      11253.53         45.01       9808.24       -134.97          4.14         44.71
     2       24          4.14       -135.29      11253.53         45.01       9808.23       -134.97          4.14         44.71
     2       25          4.14       -135.29      11253.53         45.01       9808.23       -134.97          4.14         44.71
     2       26          4.14       -135.29      11253.53         45.01       9808.23       -134.97          4.14         44.71
     2       27          4.14       -135.29      11253.53         45.01       9808.23       -134.97          4.14         44.71
     2       28          4.14       -135.29      11253.53         45.01       9808.23       -134.97          4.14         44.71
     2       29          4.14       -135.29      11253.53         45.01       9808.23       -134.97          4.14         44.71
     2       30          4.14       -135.29      11253.53         45.01       9808.23       -134.97          4.14         44.71
     2       31          4.14       -135.29      11253.53         45.01       9808.23       -134.97          4.14         44.71
     2       32          4.14       -135.29      11253.53         45.01       9808.23       -134.97          4.14         44.71
     2       33          4.14       -135.29      11253.53         45.01       9808.24       -134.97          4.14         44.71
     2       34          4.14       -135.29      11253.53         45.01       9808.24       -134.97          4.14         44.71
     2       35          4.14       -135.29      11253.53         45.01       9808.24       -134.97          4.14         44.71
     2       36          4.14       -135.29      11253.53         45.01       9808.23       -134.97          4.14         44.71
     2       37          4.14       -135.29      11253.53         45.01       9808.23       -134.97          4.14         44.71
     2       38          4.14       -135.29      11253.53         45.01       9808.23       -134.97          4.14         44.71
     2       39          4.14       -135.29      11253.53         45.01       9808.23       -134.97          4.14         44.71
     2       40          4.14       -135.29      11253.53         45.01       9808.23       -134.97          4.14         44.71
     2       41          4.14       -135.29      11253.53         45.01       9808.23       -134.97          4.14         44.71
     2       42          4.14       -135.29      11253.53         45.01       9808.23       -134.97          4.14         44.71
     2       43          4.14       -135.29      11253.53         45.01       9808.24       -134.97          4.14         44.71
     2       44          4.14       -135.29      11253.53         45.01       9808.24       -134.97          4.14         44.71
     2       45          4.14       -135.29      11253.53         45.01       9808.24       -134.97          4.14         44.71
     2       46          4.14       -135.29      11253.53         45.01       9808.24       -134.97          4.14         44.71
     2       47          4.14       -135.29      11253.53         45.01       9808.24       -134.97          4.14         44.71
     2       48          4.14       -135.29      11253.53         45.01       9808.24       -134.97          4.14         44.71
     2       49          4.14       -135.29      11253.53         45.01       9808.23       -134.97          4.14         44.71
     2       50          4.14       -135.29      11253.53         45.01       9808.23       -134.97          4.14         44.71
     2       51          4.14       -135.29      11253.53         45.01       9808.23       -134.97          4.14         44.71
     2       52          4.14       -135.29      11253.53         45.01       9808.23       -134.97          4.14         44.71
     2       53          4.14       -135.29      11253.53         45.01       9808.24       -134.97          4.14         44.71
     2       54          4.14       -135.29      11253.53         45.01       9808.24       -134.97          4.14         44.71
     2       55          4.14       -135.29      11253.53         45.01       9808.24       -134.97          4.14         44.71
     3        1         16.10        -96.39      11963.50         48.92       9656.59       -135.69         16.10         83.61
     3        2         16.10        -96.39      11963.50         48.92       9656.60       -135.69         16.10         83.61
     3        3         16.10        -96.39      11963.49         48.92       9656.60       -135.69         16.10         83.61
     3        4         16.10        -96.39      11963.49         48.92       9656.60       -135.69         16.10         83.61
     3        5         16.10        -96.39      11963.49         48.92       9656.60       -135.69         16.10         83.61
     3        6         16.10        -96.39      11963.49         48.92       9656.60       -135.69         16.10         83.61
     3        7         16.10        -96.39      11963.49         48.92       9656.60       -135.69         16.10         83.61
     3        8         16.10        -96.39      11963.49         48.92       9656.60       -135.69         16.10         83.61
     3        9         16.10        -96.39      11963.49         48.92       9656.60       -135.69         16.10         83.61
     3       10         16.10        -96.39      11963.50         48.92       9656.60       -135.69         16.10         83.61
     3       11         16.10        -96.39      11963.50         48.92       9656.59       -135.69         16.10         83.61
     3       12         16.10        -96.39      11963.50         48.92       9656.60       -135.69         16.10         83.61
     3       13         16.10        -96.39      11963.50         48.92       9656.60       -135.69         16.10         83.61
     3       14         16.10        -96.39      11963.49         48.92       9656.60       -135.69         16.10         83.61
     3       15         16.10        -96.39      11963.49         48.92       9656.60       -135.69         16.10         83.61
     3       16         16.10        -96.39      11963.49         48.92       9656.60       -135.69         16.10         83.61
     3       17         16.10        -96.39      11963.49         48.92       9656.60       -135.69         16.10         83.61
     3       18         16.10        -96.39      11963.49         48.92       9656.60       -135.69         16.10         83.61
     3       19         16.10        -96.39      11963.49         48.92       9656.60       -135.69         16.10         83.61
     3       20         16.10        -96.39      11963.49         48.92       9656.60       -135.69         16.10         83.61
     3       21         16.10        -96.39      11963.50         48.92       9656.60       -135.69         16.10         83.61
     3       22         16.10        -96.39      11963.50         48.92       9656.60       -135.69         16.10         83.61
     3       23         16.10        -96.39      11963.50         48.92       9656.60       -135.69         16.10         83.61
     3       24         16.10        -96.39      11963.50         48.92       9656.60       -135.69         16.10         83.61
     3       25         16.10        -96.39      11963.49         48.92       9656.60       -135.69         16.10         83.61
     3       26         16.10        -96.39      11963.49         48.92       9656.60       -135.69         16.10         83.61
     3       27         16.10        -96.39      11963.49         48.92       9656.60       -135.69         16.10         83.61
     3       28         16.10        -96.39      11963.49         48.92       9656.60       -135.69         16.10         83.61
     3       29         16.10        -96.39      11963.49         48.92       9656.60       -135.69         16.10         83.61
     3       30         16.10        -96.39      11963.49         48.92       9656.60       -135.69         16.10         83.61
     3       31         16.10        -96.39      11963.49         48.92       9656.60       -135.69         16.10         83.61
     3       32         16.10        -96.39      11963.50         48.92       9656.60       -135.69         16.10         83.61
     3       33         16.10        -96.39      11963.50         48.92       9656.60       -135.69         16.10         83.61
     3       34         16.10        -96.39      11963.50         48.92       9656.60       -135.69         16.10         83.61
     3       35         16.10        -96.39      11963.50         48.92       9656.60       -135.69         16.10         83.61
     3       36         16.10        -96.39      11963.49         48.92       9656.60       -135.69         16.10         83.61
     3       37         16.10        -96.39      11963.49         48.92       9656.60       -135.69         16.10         83.61
     3       38         16.10        -96.39      11963.49         48.92       9656.60       -135.69         16.10         83.61
     3       39         16.10        -96.39      11963.49         48.92       9656.60       -135.69         16.10         83.61
     3       40         16.10        -96.39      11963.49         48.92       9656.60       -135.69         16.10         83.61
     3       41         16.10        -96.39      11963.49         48.92       9656.60       -135.69         16.10         83.61
     3       42         16.10        -96.39      11963.49         48.92       9656.60       -135.69         16.10         83.61
     3       43         16.10        -96.39      11963.50         48.92       9656.60       -135.69         16.10         83.61
     3       44         16.10        -96.39      11963.50         48.92       9656.60       -135.69         16.10         83.61
     3       45         16.10        -96.39      11963.50         48.92       9656.59       -135.69         16.10         83.61
     3       46         16.10        -96.39      11963.50         48.92       9656.60       -135.69         16.10         83.61
     3       47         16.10        -96.39      11963.49         48.92       9656.60       -135.69         16.10         83.61
     3       48         16.10        -96.39      11963.49         48.92       9656.60       -135.69         16.10         83.61
     3       49         16.10        -96.39      11963.49         48.92       9656.60       -135.69         16.10         83.61
     3       50         16.10        -96.39      11963.49         48.92       9656.60       -135.69         16.10         83.61
     3       51         16.10        -96.39      11963.49         48.92       9656.60       -135.69         16.10         83.61
     3       52         16.10        -96.39      11963.49         48.92       9656.60       -135.69         16.10         83.61
     3       53         16.10        -96.39      11963.49         48.92       9656.60       -135.69         16.10         83.61
     3       54         16.10        -96.39      11963.50         48.92       9656.60       -135.69         16.10         83.61
     3       55         16.10        -96.39      11963.50         48.92       9656.59       -135.69         16.10         83.61
     4        1         45.90        -63.06      11584.60         54.91       9766.05       -137.19         45.90        116.95
     4        2         45.90        -63.06      11584.60         54.91       9766.06       -137.19         45.90        116.95
     4        3         45.90        -63.06      11584.60         54.91       9766.06       -137.19         45.90        116.95
     4        4         45.90        -63.06      11584.60         54.91       9766.07       -137.19         45.90        116.95
     4        5         45.90        -63.06      11584.60         54.91       9766.07       -137.19         45.90        116.94
     4        6         45.90        -63.06      11584.60         54.91       9766.07       -137.19         45.90        116.94
     4        7         45.90        -63.06      11584.60         54.91       9766.07       -137.19         45.90        116.94
     4        8         45.90        -63.06      11584.60         54.91       9766.07       -137.19         45.90        116.95
     4        9         45.90        -63.06      11584.60         54.91       9766.06       -137.19         45.90        116.95
     4       10         45.90        -63.06      11584.60         54.91       9766.06       -137.19         45.90        116.95
     4       11         45.90        -63.06      11584.60         54.91       9766.05       -137.19         45.90        116.95
     4       12         45.90        -63.06      11584.60         54.91       9766.06       -137.19         45.90        116.95
     4       13         45.90        -63.06      11584.60         54.91       9766.07       -137.19         45.90        116.95
     4       14         45.90        -63.06      11584.60         54.91       9766.08       -137.19         45.90        116.95
     4       15         45.90        -63.06      11584.60         54.91       9766.08       -137.19         45.90        116.95
     4       16         45.90        -63.06      11584.60         54.91       9766.08       -137.19         45.90        116.95
     4       17         45.90        -63.06      11584.60         54.91       9766.08       -137.19         45.90        116.95
     4       18         45.90        -63.06      11584.60         54.91       9766.08       -137.19         45.90        116.95
     4       19         45.90        -63.06      11584.60         54.91       9766.08       -137.19         45.90        116.95
     4       20         45.90        -63.06      11584.60         54.91       9766.08       -137.19         45.90        116.95
     4       21         45.90        -63.06      11584.60         54.91       9766.07       -137.19         45.90        116.95
     4       22         45.90        -63.06      11584.60         54.91       9766.06       -137.19         45.90        116.95
     4       23         45.90        -63.06      11584.60         54.91       9766.06       -137.19         45.90        116.95
     4       24         45.90        -63.06      11584.60         54.91       9766.07       -137.19         45.90        116.95
     4       25         45.90        -63.06      11584.60         54.91       9766.08       -137.19         45.90        116.95
     4       26         45.90        -63.06      11584.60         54.91       9766.08       -137.19         45.90        116.95
     4       27         45.90        -63.06      11584.60         54.91       9766.09       -137.19         45.90        116.95
     4       28         45.90        -63.06      11584.60         54.91       9766.09       -137.19         45.90        116.95
     4       29         45.90        -63.06      11584.60         54.91       9766.09       -137.19         45.90        116.95
     4       30         45.90        -63.06      11584.60         54.91       9766.08       -137.19         45.90        116.95
     4       31         45.90        -63.06      11584.60         54.91       9766.08       -137.19         45.90        116.95
     4       32         45.90        -63.06      11584.60         54.91       9766.07       -137.19         45.90        116.95
     4       33         45.90        -63.06      11584.60         54.91       9766.06       -137.19         45.90        116.95
     4       34         45.90        -63.06      11584.60         54.91       9766.06       -137.19         45.90        116.95
     4       35         45.90        -63.06      11584.60         54.91       9766.07       -137.19         45.90        116.95
     4       36         45.90        -63.06      11584.60         54.91       9766.08       -137.19         45.90        116.95
     4       37         45.90        -63.06      11584.60         54.91       9766.08       -137.19         45.90        116.95
     4       38         45.90        -63.06      11584.60         54.91       9766.08       -137.19         45.90        116.95
     4       39         45.90        -63.06      11584.60         54.91       9766.08       -137.19         45.90        116.95
     4       40         45.90        -63.06      11584.60         54.91       9766.08       -137.19         45.90        116.95
     4       41         45.90        -63.06      11584.60         54.91       9766.08       -137.19         45.90        116.95
     4       42         45.90        -63.06      11584.60         54.91       9766.08       -137.19         45.90        116.95
     4       43         45.90        -63.06      11584.60         54.91       9766.07       -137.19         45.90        116.95
     4       44         45.90        -63.06      11584.60         54.91       9766.06       -137.19         45.90        116.95
     4       45         45.90        -63.06      11584.60         54.91       9766.05       -137.19         45.90        116.95