# Format:          MT3DResp_1.0
# Description:     Response file generated at Fri 25 Dec 2020 02:12:19 PM CST
Phase Convention:    lead
Receiver Location (m):      55
#          X            Y            Z
    -8000.00    -10000.00         0.00
    -4000.00    -10000.00         0.00
        0.00    -10000.00         0.00
     4000.00    -10000.00         0.00
     8000.00    -10000.00         0.00
    -8000.00     -8000.00         0.00
    -4000.00     -8000.00         0.00
        0.00     -8000.00         0.00
     4000.00     -8000.00         0.00
     8000.00     -8000.00         0.00
    -8000.00     -6000.00         0.00
    -4000.00     -6000.00         0.00
        0.00     -6000.00         0.00
     4000.00     -6000.00         0.00
     8000.00     -6000.00         0.00
    -8000.00     -4000.00         0.00
    -4000.00     -4000.00         0.00
        0.00     -4000.00         0.00
     4000.00     -4000.00         0.00
     8000.00     -4000.00         0.00
    -8000.00     -2000.00         0.00
    -4000.00     -2000.00         0.00
        0.00     -2000.00         0.00
     4000.00     -2000.00         0.00
     8000.00     -2000.00         0.00
    -8000.00         0.00         0.00
    -4000.00         0.00         0.00
        0.00         0.00         0.00
     4000.00         0.00         0.00
     8000.00         0.00         0.00
    -8000.00      2000.00         0.00
    -4000.00      2000.00         0.00
        0.00      2000.00         0.00
     4000.00      2000.00         0.00
     8000.00      2000.00         0.00
    -8000.00      4000.00         0.00
    -4000.00      4000.00         0.00
        0.00      4000.00         0.00
     4000.00      4000.00         0.00
     8000.00      4000.00         0.00
    -8000.00      6000.00         0.00
    -4000.00      6000.00         0.00
        0.00      6000.00         0.00
     4000.00      6000.00         0.00
     8000.00      6000.00         0.00
    -8000.00      8000.00         0.00
    -4000.00      8000.00         0.00
        0.00      8000.00         0.00
     4000.00      8000.00         0.00
     8000.00      8000.00         0.00
    -8000.00     10000.00         0.00
    -4000.00     10000.00         0.00
        0.00     10000.00         0.00
     4000.00     10000.00         0.00
     8000.00     10000.00         0.00
Frequencies (Hz):       6
    1.00000e+01
    1.00000e+00
    1.00000e-01
    1.00000e-02
    1.00000e-03
    1.00000e-04
DataType:  Rho_Phs
DataComp:     4
RhoXY
PhsXY
RhoYX
PhsYX
Data Block:     330
# FreqNo.  RxNo.        RhoXX         PhsXX         RhoXY         PhsXY         RhoYX         PhsYX         RhoYY         PhsYY
     1        1          0.00         12.43         89.50         40.66         89.50       -139.34          0.00        161.52
     1        2          0.00        132.73         89.50         40.66         89.50       -139.34          0.00          9.34
     1        3          0.00        105.07         89.50         40.66         89.50       -139.34          0.00        -18.74
     1        4          0.00         82.77         89.50         40.66         89.50       -139.34          0.00         35.27
     1        5          0.00         47.37         89.50         40.66         89.50       -139.34          0.00        175.98
     1        6          0.00         36.33         89.50         40.66         89.50       -139.34          0.00         68.27
     1        7          0.00       -108.09         89.50         40.66         89.50       -139.34          0.00        145.19
     1        8          0.00        143.42         89.50         40.66         89.50       -139.34          0.00         96.19
     1        9          0.00         27.18         89.50         40.66         89.50       -139.34          0.00         36.92
     1       10          0.00         78.46         89.50         40.66         89.50       -139.34          0.00       -114.43
     1       11          0.00        165.07         89.50         40.66         89.50       -139.34          0.00         46.90
     1       12          0.00       -162.08         89.50         40.66         89.50       -139.34          0.00         16.75
     1       13          0.00        -78.71         89.50         40.66         89.50       -139.34          0.00         26.83
     1       14          0.00       -169.54         89.50         40.66         89.50       -139.34          0.00         -6.74
     1       15          0.00         -0.26         89.50         40.66         89.50       -139.34          0.00         72.98
     1       16          0.00       -177.52         89.50         40.66         89.50       -139.34          0.00         58.24
     1       17          0.00       -176.30         89.50         40.66         89.50       -139.34          0.00       -148.86
     1       18          0.00        -38.65         89.50         40.66         89.50       -139.34          0.00        173.13
     1       19          0.00         51.52         89.50         40.66         89.50       -139.34          0.00        127.71
     1       20          0.00        140.15         89.50         40.66         89.50       -139.34          0.00        163.31
     1       21          0.00        138.43         89.50         40.66         89.50       -139.34          0.00        -10.46
     1       22          0.00        -10.74         89.50         40.66         89.50       -139.34          0.00        123.99
     1       23          0.00         64.38         89.50         40.66         89.50       -139.34          0.00        125.52
     1       24          0.00        104.48         89.50         40.66         89.50       -139.34          0.00        177.19
     1       25          0.00         -0.79         89.50         40.66         89.50       -139.34          0.00        128.51
     1       26          0.00         41.73         89.50         40.66         89.50       -139.34          0.00        159.40
     1       27          0.00        147.27         89.50         40.66         89.50       -139.34          0.00        -75.28
     1       28          0.00        -16.30         89.50         40.66         89.50       -139.34          0.00       -154.68
     1       29          0.00         16.14         89.50         40.66         89.50       -139.34          0.00        -66.06
     1       30          0.00       -154.57         89.50         40.66         89.50       -139.34          0.00        130.86
     1       31          0.00        171.82         89.50         40.66         89.50       -139.34          0.00        111.08
     1       32          0.00          2.91         89.50         40.66         89.50       -139.34          0.00        167.90
     1       33          0.00        174.78         89.50         40.66         89.50       -139.34          0.00        137.79
     1       34          0.00         55.94         89.50         40.66         89.50       -139.34          0.00        -76.35
     1       35          0.00         20.00         89.50         40.66         89.50       -139.34          0.00        -16.17
     1       36          0.00        -24.97         89.50         40.66         89.50       -139.34          0.00        124.21
     1       37          0.00        107.09         89.50         40.66         89.50       -139.34          0.00        -12.72
     1       38          0.00       -139.83         89.50         40.66         89.50       -139.34          0.00          5.24
     1       39          0.00         43.09         89.50         40.66         89.50       -139.34          0.00        160.80
     1       40          0.00        167.87         89.50         40.66         89.50       -139.34          0.00       -136.47
     1       41          0.00        -65.59         89.50         40.66         89.50       -139.34          0.00       -176.14
     1       42          0.00        -61.34         89.50         40.66         89.50       -139.34          0.00        151.79
     1       43          0.00       -149.73         89.50         40.66         89.50       -139.34          0.00        150.52
     1       44          0.00        170.17         89.50         40.66         89.50       -139.34          0.00          0.78
     1       45          0.00        -97.30         89.50         40.66         89.50       -139.34          0.00        -74.05
     1       46          0.00        -57.39         89.50         40.66         89.50       -139.34          0.00        -22.71
     1       47          0.00       -100.26         89.50         40.66         89.50       -139.34          0.00         20.51
     1       48          0.00        -33.41         89.50         40.66         89.50       -139.34          0.00          2.87
     1       49          0.00       -158.26         89.50         40.66         89.50       -139.34          0.00        -71.70
     1       50          0.00         29.47         89.50         40.66         89.50       -139.34          0.00       -148.82
     1       51          0.00       -159.28         89.50         40.66         89.50       -139.34          0.00       -156.73
     1       52          0.00          0.17         89.50         40.66         89.50       -139.34          0.00        159.91
     1       53          0.00         43.00         89.50         40.66         89.50       -139.34          0.00       -102.37
     1       54          0.00         51.92         89.50         40.66         89.50       -139.34          0.00        146.46
     1       55          0.00        148.74         89.50         40.66         89.50       -139.34          0.00          6.97
     2        1          0.00       -143.44        174.76         54.54        174.76       -125.46          0.00         -8.77
     2        2          0.00        -12.50        174.76         54.54        174.76       -125.46          0.00        154.76
     2        3          0.00        160.05        174.76         54.54        174.76       -125.46          0.00        163.54
     2        4          0.00         10.56        174.76         54.54        174.76       -125.46          0.00        148.17
     2        5          0.00       -168.28        174.76         54.54        174.76       -125.46          0.00        -42.57
     2        6          0.00        163.68        174.76         54.54        174.76       -125.46          0.00        144.25
     2        7          0.00        151.96        174.76         54.54        174.76       -125.46          0.00         -1.59
     2        8          0.00        -17.65        174.76         54.54        174.76       -125.46          0.00        131.06
     2        9          0.00       -158.95        174.76         54.54        174.76       -125.46          0.00        -14.34
     2       10          0.00        -47.11        174.76         54.54        174.76       -125.46          0.00        -76.80
     2       11          0.00        126.21        174.76         54.54        174.76       -125.46          0.00        -69.03
     2       12          0.00        166.29        174.76         54.54        174.76       -125.46          0.00         -0.93
     2       13          0.00        -15.21        174.76         54.54        174.76       -125.46          0.00         52.21
     2       14          0.00       -140.35        174.76         54.54        174.76       -125.46          0.00        -17.22
     2       15          0.00        -31.51        174.76         54.54        174.76       -125.46          0.00        103.10
     2       16          0.00        108.20        174.76         54.54        174.76       -125.46          0.00         -1.68
     2       17          0.00        -11.29        174.76         54.54        174.76       -125.46          0.00        154.06
     2       18          0.00        161.58        174.76         54.54        174.76       -125.46          0.00          3.18
     2       19          0.00        -31.09        174.76         54.54        174.76       -125.46          0.00       -177.93
     2       20          0.00        153.63        174.76         54.54        174.76       -125.46          0.00        169.79
     2       21          0.00        177.57        174.76         54.54        174.76       -125.46          0.00        -19.97
     2       22          0.00        -55.34        174.76         54.54        174.76       -125.46          0.00        161.04
     2       23          0.00         19.02        174.76         54.54        174.76       -125.46          0.00        -19.23
     2       24          0.00        159.98        174.76         54.54        174.76       -125.46          0.00        -19.16
     2       25          0.00        152.11        174.76         54.54        174.76       -125.46          0.00        154.69
     2       26          0.00        167.41        174.76         54.54        174.76       -125.46          0.00        158.81
     2       27          0.00       -173.14        174.76         54.54        174.76       -125.46          0.00        -14.72
     2       28          0.00         30.80        174.76         54.54        174.76       -125.46          0.00        156.67
     2       29          0.00       -148.45        174.76         54.54        174.76       -125.46          0.00        138.28
     2       30          0.00        -16.97        174.76         54.54        174.76       -125.46          0.00        -27.57
     2       31          0.00        -10.78        174.76         54.54        174.76       -125.46          0.00         92.37
     2       32          0.00        -30.91        174.76         54.54        174.76       -125.46          0.00       -158.07
     2       33          0.00          5.59        174.76         54.54        174.76       -125.46          0.00        146.77
     2       34          0.00        174.17        174.76         54.54        174.76       -125.46          0.00        139.65
     2       35          0.00         95.56        174.76         54.54        174.76       -125.46          0.00        179.70
     2       36          0.00        154.15        174.76         54.54        174.76       -125.46          0.00         47.59
     2       37          0.00         -9.86        174.76         54.54        174.76       -125.46          0.00         -6.80
     2       38          0.00       -176.64        174.76         54.54        174.76       -125.46          0.00         -8.67
     2       39          0.00          6.12        174.76         54.54        174.76       -125.46          0.00        122.70
     2       40          0.00        -36.75        174.76         54.54        174.76       -125.46          0.00        -13.15
     2       41          0.00        129.96        174.76         54.54        174.76       -125.46          0.00       -150.88
     2       42          0.00       -156.61        174.76         54.54        174.76       -125.46          0.00        -38.72
     2       43          0.00        -13.30        174.76         54.54        174.76       -125.46          0.00         -9.42
     2       44          0.00        139.81        174.76         54.54        174.76       -125.46          0.00        147.94
     2       45          0.00        148.25        174.76         54.54        174.76       -125.46          0.00         -9.87
     2       46          0.00        -92.81        174.76         54.54        174.76       -125.46          0.00        169.92
     2       47          0.00        -14.86        174.76         54.54        174.76       -125.46          0.00         32.24
     2       48          0.00        151.87        174.76         54.54        174.76       -125.46          0.00       -179.13
     2       49          0.00        162.28        174.76         54.54        174.76       -125.46          0.00        167.98
     2       50          0.00         -4.58        174.76         54.54        174.76       -125.46          0.00        163.59
     2       51          0.00        -14.21        174.76         54.54        174.76       -125.46          0.00       -110.88
     2       52          0.00         12.23        174.76         54.54        174.76       -125.46          0.00        170.77
     2       53          0.00       -146.61        174.76         54.54        174.76       -125.46          0.00        -34.49
     2       54          0.00        -11.28        174.76         54.54        174.76       -125.46          0.00        -14.90
     2       55          0.00         68.77        174.76         54.54        174.76       -125.46          0.00        119.86
     3        1          0.00        -79.66         35.47         78.49         35.47       -101.51          0.00        -75.82
     3        2          0.00        -74.85         35.47         78.49         35.47       -101.51          0.00       -103.99
     3        3          0.00        102.38         35.47         78.49         35.47       -101.51          0.00        103.52
     3        4          0.00        100.66         35.47         78.49         35.47       -101.51          0.00        -96.47
     3        5          0.00         61.41         35.47         78.49         35.47       -101.51          0.00        102.83
     3        6          0.00        102.41         35.47         78.49         35.47       -101.51          0.00        103.26
     3        7          0.00        -75.38         35.47         78.49         35.47       -101.51          0.00        103.28
     3        8          0.00        104.46         35.47         78.49         35.47       -101.51          0.00        100.11
     3        9          0.00        107.66         35.47         78.49         35.47       -101.51          0.00        -74.78
     3       10          0.00        -79.76         35.47         78.49         35.47       -101.51          0.00        -78.61
     3       11          0.00         99.99         35.47         78.49         35.47       -101.51          0.00        102.29
     3       12          0.00        100.84         35.47         78.49         35.47       -101.51          0.00        -76.84
     3       13          0.00        -82.71         35.47         78.49         35.47       -101.51          0.00        -75.87
     3       14          0.00        -75.25         35.47         78.49         35.47       -101.51          0.00         93.88
     3       15          0.00        113.32         35.47         78.49         35.47       -101.51          0.00        101.42
     3       16          0.00       -109.50         35.47         78.49         35.47       -101.51          0.00        -78.27
     3       17          0.00        103.32         35.47         78.49         35.47       -101.51          0.00        -79.25
     3       18          0.00        -76.50         35.47         78.49         35.47       -101.51          0.00         95.74
     3       19          0.00        -79.41         35.47         78.49         35.47       -101.51          0.00         95.77
     3       20          0.00        106.27         35.47         78.49         35.47       -101.51          0.00        -77.82
     3       21          0.00        104.52         35.47         78.49         35.47       -101.51          0.00        102.70
     3       22          0.00        -56.30         35.47         78.49         35.47       -101.51          0.00        -78.16
     3       23          0.00        -76.48         35.47         78.49         35.47       -101.51          0.00         97.80
     3       24          0.00         96.20         35.47         78.49         35.47       -101.51          0.00         97.18
     3       25          0.00        -76.72         35.47         78.49         35.47       -101.51          0.00        -74.17
     3       26          0.00        103.98         35.47         78.49         35.47       -101.51          0.00        -76.85
     3       27          0.00        -68.14         35.47         78.49         35.47       -101.51          0.00        101.60
     3       28          0.00        104.35         35.47         78.49         35.47       -101.51          0.00        -83.75
     3       29          0.00        -73.89         35.47         78.49         35.47       -101.51          0.00        110.10
     3       30          0.00        -76.76         35.47         78.49         35.47       -101.51          0.00        103.50
     3       31          0.00        101.87         35.47         78.49         35.47       -101.51          0.00        -75.62
     3       32          0.00        -74.72         35.47         78.49         35.47       -101.51          0.00         93.83
     3       33          0.00        105.27         35.47         78.49         35.47       -101.51          0.00        112.06
     3       34          0.00        -74.00         35.47         78.49         35.47       -101.51          0.00        -71.14
     3       35          0.00        110.56         35.47         78.49         35.47       -101.51          0.00        104.10
     3       36          0.00        -74.63         35.47         78.49         35.47       -101.51          0.00        -60.39
     3       37          0.00        -75.55         35.47         78.49         35.47       -101.51          0.00        100.22
     3       38          0.00        119.90         35.47         78.49         35.47       -101.51          0.00        -74.38
     3       39          0.00        103.81         35.47         78.49         35.47       -101.51          0.00        -84.71
     3       40          0.00        133.35         35.47         78.49         35.47       -101.51          0.00        -64.36
     3       41          0.00         80.43         35.47         78.49         35.47       -101.51          0.00        114.34
     3       42          0.00        -73.95         35.47         78.49         35.47       -101.51          0.00        106.25
     3       43          0.00        103.57         35.47         78.49         35.47       -101.51          0.00        108.95
     3       44          0.00        -82.89         35.47         78.49         35.47       -101.51          0.00        110.45
     3       45          0.00        -89.16         35.47         78.49         35.47       -101.51          0.00        -67.98
     3       46          0.00        133.97         35.47         78.49         35.47       -101.51          0.00         96.81
     3       47          0.00         99.72         35.47         78.49         35.47       -101.51          0.00        108.92
     3       48          0.00        -79.45         35.47         78.49         35.47       -101.51          0.00        -89.44
     3       49          0.00        -77.89         35.47         78.49         35.47       -101.51          0.00         98.40
     3       50          0.00        110.40         35.47         78.49         35.47       -101.51          0.00        104.54
     3       51          0.00        -72.00         35.47         78.49         35.47       -101.51          0.00         82.46
     3       52          0.00        -48.51         35.47         78.49         35.47       -101.51          0.00        -77.32
     3       53          0.00        -74.29         35.47         78.49         35.47       -101.51          0.00        -68.75
     3       54          0.00         96.65         35.47         78.49         35.47       -101.51          0.00         59.91
     3       55          0.00       -110.82         35.47         78.49         35.47       -101.51          0.00       -101.89
     4        1          0.00        -28.79          6.13         72.94          6.13       -107.06          0.00        134.97
     4        2          0.00        133.77          6.13         72.94          6.13       -107.06          0.00        132.42
     4        3          0.00        -45.25          6.13         72.94          6.13       -107.06          0.00        159.92
     4        4          0.00        135.49          6.13         72.94          6.13       -107.06          0.00        -88.80
     4        5          0.00        171.06          6.13         72.94          6.13       -107.06          0.00        135.85
     4        6          0.00        -44.87          6.13         72.94          6.13       -107.06          0.00        -46.20
     4        7          0.00        -44.09          6.13         72.94          6.13       -107.06          0.00        -52.39
     4        8          0.00        135.27          6.13         72.94          6.13       -107.06          0.00        134.56
     4        9          0.00        -31.40          6.13         72.94          6.13       -107.06          0.00       -160.44
     4       10          0.00        135.50          6.13         72.94          6.13       -107.06          0.00        134.29
     4       11          0.00        134.86          6.13         72.94          6.13       -107.06          0.00        -43.98
     4       12          0.00        -57.38          6.13         72.94          6.13       -107.06          0.00        -46.46
     4       13          0.00        -41.88          6.13         72.94          6.13       -107.06          0.00        -46.35
     4       14          0.00        134.35          6.13         72.94          6.13       -107.06          0.00        134.90
     4       15          0.00        -45.07          6.13         72.94          6.13       -107.06          0.00        137.62
     4       16          0.00        -55.14          6.13         72.94          6.13       -107.06          0.00        134.85
     4       17          0.00        -52.82          6.13         72.94          6.13       -107.06          0.00       -148.86
     4       18          0.00        100.41          6.13         72.94          6.13       -107.06          0.00        133.07
     4       19          0.00        136.14          6.13         72.94          6.13       -107.06          0.00        -48.66
     4       20          0.00        133.01          6.13         72.94          6.13       -107.06          0.00       -132.77
     4       21          0.00        -43.99          6.13         72.94          6.13       -107.06          0.00        -46.78
     4       22          0.00        133.97          6.13         72.94          6.13       -107.06          0.00        -46.42
     4       23          0.00        131.36          6.13         72.94          6.13       -107.06          0.00        126.59
     4       24          0.00        -45.99          6.13         72.94          6.13       -107.06          0.00        -54.80
     4       25          0.00        -40.36          6.13         72.94          6.13       -107.06          0.00        -80.08
     4       26          0.00        134.94          6.13         72.94          6.13       -107.06          0.00        133.02
     4       27          0.00        134.44          6.13         72.94          6.13       -107.06          0.00        133.40
     4       28          0.00        -31.56          6.13         72.94          6.13       -107.06          0.00        -81.24
     4       29          0.00        -45.34          6.13         72.94          6.13       -107.06          0.00        121.81
     4       30          0.00        -42.28          6.13         72.94          6.13       -107.06          0.00        119.84
     4       31          0.00        134.62          6.13         72.94          6.13       -107.06          0.00        135.67
     4       32          0.00        134.83          6.13         72.94          6.13       -107.06          0.00        135.07
     4       33          0.00        -44.52          6.13         72.94          6.13       -107.06          0.00        136.15
     4       34          0.00        134.79          6.13         72.94          6.13       -107.06          0.00        -37.12
     4       35          0.00        132.82          6.13         72.94          6.13       -107.06          0.00        130.77
     4       36          0.00        -44.52          6.13         72.94          6.13       -107.06          0.00        130.11
     4       37          0.00        135.87          6.13         72.94          6.13       -107.06          0.00        -47.41
     4       38          0.00        -33.78          6.13         72.94          6.13       -107.06          0.00        -44.78
     4       39          0.00        134.20          6.13         72.94          6.13       -107.06          0.00        -43.92
     4       40          0.00        133.91          6.13         72.94          6.13       -107.06          0.00        130.23
     4       41          0.00        134.42          6.13         72.94          6.13       -107.06          0.00        -65.20
     4       42          0.00        132.88          6.13         72.94          6.13       -107.06          0.00        138.46
     4       43          0.00        -44.51          6.13         72.94          6.13       -107.06          0.00        -42.72
     4       44          0.00        -44.82          6.13         72.94          6.13       -107.06          0.00        -71.62
     4       45          0.00        134.91          6.13         72.94          6.13       -107.06          0.00         71.83
     4       46          0.00        -42.91          6.13         72.94          6.13       -107.06          0.00        129.37
     4       47          0.00        -42.91          6.13         72.94          6.13       -107.06          0.00        -52.80
     4       48          0.00        135.12          6.13         72.94          6.13       -107.06          0.00        132.05