# Format:          MT3DResp_1.0
# Description:     Response file generated at Fri 25 Dec 2020 02:25:00 PM CST
Phase Convention:    lead
Receiver Location (m):      55
#          X            Y            Z
    -8000.00    -10000.00         0.00
    -4000.00    -10000.00         0.00
        0.00    -10000.00         0.00
     4000.00    -10000.00         0.00
     8000.00    -10000.00         0.00
    -8000.00     -8000.00         0.00
    -4000.00     -8000.00         0.00
        0.00     -8000.00         0.00
     4000.00     -8000.00         0.00
     8000.00     -8000.00         0.00
    -8000.00     -6000.00         0.00
    -4000.00     -6000.00         0.00
        0.00     -6000.00         0.00
     4000.00     -6000.00         0.00
     8000.00     -6000.00         0.00
    -8000.00     -4000.00         0.00
    -4000.00     -4000.00         0.00
        0.00     -4000.00         0.00
     4000.00     -4000.00         0.00
     8000.00     -4000.00         0.00
    -8000.00     -2000.00         0.00
    -4000.00     -2000.00         0.00
        0.00     -2000.00         0.00
     4000.00     -2000.00         0.00
     8000.00     -2000.00         0.00
    -8000.00         0.00         0.00
    -4000.00         0.00         0.00
        0.00         0.00         0.00
     4000.00         0.00         0.00
     8000.00         0.00         0.00
    -8000.00      2000.00         0.00
    -4000.00      2000.00         0.00
        0.00      2000.00         0.00
     4000.00      2000.00         0.00
     8000.00      2000.00         0.00
    -8000.00      4000.00         0.00
    -4000.00      4000.00         0.00
        0.00      4000.00         0.00
     4000.00      4000.00         0.00
     8000.00      4000.00         0.00
    -8000.00      6000.00         0.00
    -4000.00      6000.00         0.00
        0.00      6000.00         0.00
     4000.00      6000.00         0.00
     8000.00      6000.00         0.00
    -8000.00      8000.00         0.00
    -4000.00      8000.00         0.00
        0.00      8000.00         0.00
     4000.00      8000.00         0.00
     8000.00      8000.00         0.00
    -8000.00     10000.00         0.00
    -4000.00     10000.00         0.00
        0.00     10000.00         0.00
     4000.00     10000.00         0.00
     8000.00     10000.00         0.00
Frequencies (Hz):       6
    1.00000e+01
    1.00000e+00
    1.00000e-01
    1.00000e-02
    1.00000e-03
    1.00000e-04
DataType:  Rho_Phs
DataComp:     4
RhoXY
PhsXY
RhoYX
PhsYX
Data Block:     330
# FreqNo.  RxNo.        RhoXX         PhsXX         RhoXY         PhsXY         RhoYX         PhsYX         RhoYY         PhsYY
     1        1          0.00        111.78         89.80         39.53         89.80       -140.47          0.00         24.08
     1        2          0.00       -167.32         89.80         39.53         89.80       -140.47          0.00         78.05
     1        3          0.00       -154.70         89.80         39.53         89.80       -140.47          0.00         86.42
     1        4          0.00        -97.04         89.80         39.53         89.80       -140.47          0.00        115.50
     1        5          0.00       -140.69         89.80         39.53         89.80       -140.47          0.00        -65.15
     1        6          0.00        162.54         89.80         39.53         89.80       -140.47          0.00        144.43
     1        7          0.00        144.13         89.80         39.53         89.80       -140.47          0.00       -110.39
     1        8          0.00        -66.07         89.80         39.53         89.80       -140.47          0.00        -33.17
     1        9          0.00        111.26         89.80         39.53         89.80       -140.47          0.00         20.62
     1       10          0.00       -118.67         89.80         39.53         89.80       -140.47          0.00       -133.25
     1       11          0.00        -58.51         89.80         39.53         89.80       -140.47          0.00        -16.21
     1       12          0.00        -31.03         89.80         39.53         89.80       -140.47          0.00        136.38
     1       13          0.00        -17.37         89.80         39.53         89.80       -140.47          0.00        137.77
     1       14          0.00         63.15         89.80         39.53         89.80       -140.47          0.00       -167.32
     1       15          0.00        120.94         89.80         39.53         89.80       -140.47          0.00        169.93
     1       16          0.00         82.53         89.80         39.53         89.80       -140.47          0.00         32.19
     1       17          0.00        -79.08         89.80         39.53         89.80       -140.47          0.00        -41.34
     1       18          0.00        113.01         89.80         39.53         89.80       -140.47          0.00        -67.91
     1       19          0.00        -96.01         89.80         39.53         89.80       -140.47          0.00       -119.89
     1       20          0.00        140.64         89.80         39.53         89.80       -140.47          0.00         11.63
     1       21          0.00       -128.26         89.80         39.53         89.80       -140.47          0.00        137.85
     1       22          0.00        117.08         89.80         39.53         89.80       -140.47          0.00       -169.82
     1       23          0.00        -62.19         89.80         39.53         89.80       -140.47          0.00        -24.92
     1       24          0.00        -22.23         89.80         39.53         89.80       -140.47          0.00        168.82
     1       25          0.00        132.04         89.80         39.53         89.80       -140.47          0.00        154.91
     1       26          0.00         25.07         89.80         39.53         89.80       -140.47          0.00        -30.32
     1       27          0.00       -113.20         89.80         39.53         89.80       -140.47          0.00         29.18
     1       28          0.00        111.94         89.80         39.53         89.80       -140.47          0.00       -158.77
     1       29          0.00        150.61         89.80         39.53         89.80       -140.47          0.00          5.79
     1       30          0.00          6.06         89.80         39.53         89.80       -140.47          0.00        -27.96
     1       31          0.00        -79.68         89.80         39.53         89.80       -140.47          0.00        -39.50
     1       32          0.00        136.45         89.80         39.53         89.80       -140.47          0.00        -50.66
     1       33          0.00        -75.19         89.80         39.53         89.80       -140.47          0.00        -82.34
     1       34          0.00        -43.91         89.80         39.53         89.80       -140.47          0.00        109.56
     1       35          0.00        143.68         89.80         39.53         89.80       -140.47          0.00        125.97
     1       36          0.00        128.41         89.80         39.53         89.80       -140.47          0.00       -142.54
     1       37          0.00        -90.62         89.80         39.53         89.80       -140.47          0.00        105.85
     1       38          0.00         16.84         89.80         39.53         89.80       -140.47          0.00        129.23
     1       39          0.00        118.63         89.80         39.53         89.80       -140.47          0.00        -59.08
     1       40          0.00        -87.45         89.80         39.53         89.80       -140.47          0.00        -25.29
     1       41          0.00       -123.28         89.80         39.53         89.80       -140.47          0.00        -24.99
     1       42          0.00         19.42         89.80         39.53         89.80       -140.47          0.00        -68.73
     1       43          0.00        -43.96         89.80         39.53         89.80       -140.47          0.00       -122.71
     1       44          0.00         -0.92         89.80         39.53         89.80       -140.47          0.00        -16.06
     1       45          0.00         26.11         89.80         39.53         89.80       -140.47          0.00          0.53
     1       46          0.00        -78.15         89.80         39.53         89.80       -140.47          0.00        110.45
     1       47          0.00         96.42         89.80         39.53         89.80       -140.47          0.00         47.60
     1       48          0.00        166.40         89.80         39.53         89.80       -140.47          0.00         76.81
     1       49          0.00         50.46         89.80         39.53         89.80       -140.47          0.00        171.37
     1       50          0.00       -157.18         89.80         39.53         89.80       -140.47          0.00         97.12
     1       51          0.00        -40.95         89.80         39.53         89.80       -140.47          0.00        -54.03
     1       52          0.00        148.49         89.80         39.53         89.80       -140.47          0.00        -12.25
     1       53          0.00         68.35         89.80         39.53         89.80       -140.47          0.00         58.96
     1       54          0.00         -5.72         89.80         39.53         89.80       -140.47          0.00       -131.94
     1       55          0.00         28.47         89.80         39.53         89.80       -140.47          0.00         78.78
     2        1          0.00       -177.02        174.66         54.43        174.66       -125.57          0.00        -30.92
     2        2          0.00        -51.13        174.66         54.43        174.66       -125.57          0.00        134.47
     2        3          0.00        132.42        174.66         54.43        174.66       -125.57          0.00        145.69
     2        4          0.00        -15.51        174.66         54.43        174.66       -125.57          0.00        123.09
     2        5          0.00        164.81        174.66         54.43        174.66       -125.57          0.00        -84.19
     2        6          0.00        136.96        174.66         54.43        174.66       -125.57          0.00        112.51
     2        7          0.00        126.83        174.66         54.43        174.66       -125.57          0.00        -33.80
     2        8          0.00        -38.20        174.66         54.43        174.66       -125.57          0.00        126.91
     2        9          0.00        178.79        174.66         54.43        174.66       -125.57          0.00        -74.26
     2       10          0.00       -178.82        174.66         54.43        174.66       -125.57          0.00       -107.02
     2       11          0.00        145.05        174.66         54.43        174.66       -125.57          0.00          8.70
     2       12          0.00        136.91        174.66         54.43        174.66       -125.57          0.00        -25.39
     2       13          0.00        -42.60        174.66         54.43        174.66       -125.57          0.00         45.23
     2       14          0.00        131.89        174.66         54.43        174.66       -125.57          0.00        -39.87
     2       15          0.00        -39.22        174.66         54.43        174.66       -125.57          0.00         79.22
     2       16          0.00        160.90        174.66         54.43        174.66       -125.57          0.00        -91.27
     2       17          0.00        -45.91        174.66         54.43        174.66       -125.57          0.00        131.56
     2       18          0.00        129.55        174.66         54.43        174.66       -125.57          0.00        -29.78
     2       19          0.00        -51.76        174.66         54.43        174.66       -125.57          0.00        158.13
     2       20          0.00        146.10        174.66         54.43        174.66       -125.57          0.00        143.05
     2       21          0.00        119.38        174.66         54.43        174.66       -125.57          0.00        -47.39
     2       22          0.00        -58.20        174.66         54.43        174.66       -125.57          0.00        134.09
     2       23          0.00         26.48        174.66         54.43        174.66       -125.57          0.00        -38.92
     2       24          0.00        146.13        174.66         54.43        174.66       -125.57          0.00        -39.01
     2       25          0.00        128.62        174.66         54.43        174.66       -125.57          0.00        137.97
     2       26          0.00        130.35        174.66         54.43        174.66       -125.57          0.00        134.05
     2       27          0.00        143.31        174.66         54.43        174.66       -125.57          0.00        -38.36
     2       28          0.00         22.51        174.66         54.43        174.66       -125.57          0.00        133.52
     2       29          0.00        131.87        174.66         54.43        174.66       -125.57          0.00        136.66
     2       30          0.00       -122.66        174.66         54.43        174.66       -125.57          0.00        -41.46
     2       31          0.00        -39.74        174.66         54.43        174.66       -125.57          0.00         81.91
     2       32          0.00        -46.98        174.66         54.43        174.66       -125.57          0.00        166.33
     2       33          0.00        -40.32        174.66         54.43        174.66       -125.57          0.00        124.47
     2       34          0.00        158.03        174.66         54.43        174.66       -125.57          0.00         49.36
     2       35          0.00       -161.95        174.66         54.43        174.66       -125.57          0.00        145.22
     2       36          0.00        131.89        174.66         54.43        174.66       -125.57          0.00         18.89
     2       37          0.00        -28.77        174.66         54.43        174.66       -125.57          0.00        -16.31
     2       38          0.00        160.99        174.66         54.43        174.66       -125.57          0.00         10.32
     2       39          0.00        -20.72        174.66         54.43        174.66       -125.57          0.00        116.04
     2       40          0.00        -56.10        174.66         54.43        174.66       -125.57          0.00        -28.69
     2       41          0.00       -179.32        174.66         54.43        174.66       -125.57          0.00        179.98
     2       42          0.00        166.07        174.66         54.43        174.66       -125.57          0.00        -38.37
     2       43          0.00        -51.43        174.66         54.43        174.66       -125.57          0.00        -32.43
     2       44          0.00        125.06        174.66         54.43        174.66       -125.57          0.00        116.56
     2       45          0.00        138.69        174.66         54.43        174.66       -125.57          0.00        -50.27
     2       46          0.00        -14.88        174.66         54.43        174.66       -125.57          0.00       -172.56
     2       47          0.00        -46.67        174.66         54.43        174.66       -125.57          0.00       -110.36
     2       48          0.00        112.33        174.66         54.43        174.66       -125.57          0.00        124.22
     2       49          0.00        131.36        174.66         54.43        174.66       -125.57          0.00        147.28
     2       50          0.00        -59.93        174.66         54.43        174.66       -125.57          0.00        122.92
     2       51          0.00        -30.17        174.66         54.43        174.66       -125.57          0.00       -164.35
     2       52          0.00         -7.58        174.66         54.43        174.66       -125.57          0.00        125.41
     2       53          0.00        124.29        174.66         54.43        174.66       -125.57          0.00       -136.16
     2       54          0.00        -79.10        174.66         54.43        174.66       -125.57          0.00        -41.57
     2       55          0.00        108.79        174.66         54.43        174.66       -125.57          0.00         88.00
     3        1          0.00       -174.64         35.48         78.48         35.48       -101.52          0.00        164.53
     3        2          0.00        164.06         35.48         78.48         35.48       -101.52          0.00         71.65
     3        3          0.00        -13.87         35.48         78.48         35.48       -101.52          0.00        -12.55
     3        4          0.00        -10.21         35.48         78.48         35.48       -101.52          0.00         22.56
     3        5          0.00         -9.47         35.48         78.48         35.48       -101.52          0.00          0.38
     3        6          0.00        -11.86         35.48         78.48         35.48       -101.52          0.00        -16.84
     3        7          0.00        169.17         35.48         78.48         35.48       -101.52          0.00        -12.84
     3        8          0.00        -11.98         35.48         78.48         35.48       -101.52          0.00        -16.93
     3        9          0.00        -12.55         35.48         78.48         35.48       -101.52          0.00        167.45
     3       10          0.00        164.83         35.48         78.48         35.48       -101.52          0.00        167.95
     3       11          0.00        -14.80         35.48         78.48         35.48       -101.52          0.00        -15.19
     3       12          0.00        -15.70         35.48         78.48         35.48       -101.52          0.00        166.00
     3       13          0.00        166.23         35.48         78.48         35.48       -101.52          0.00        168.04
     3       14          0.00        163.34         35.48         78.48         35.48       -101.52          0.00        -16.98
     3       15          0.00        -14.91         35.48         78.48         35.48       -101.52          0.00        -15.22
     3       16          0.00        175.99         35.48         78.48         35.48       -101.52          0.00        165.14
     3       17          0.00        -12.38         35.48         78.48         35.48       -101.52          0.00        164.35
     3       18          0.00        168.19         35.48         78.48         35.48       -101.52          0.00        -16.30
     3       19          0.00        165.74         35.48         78.48         35.48       -101.52          0.00        -11.05
     3       20          0.00        -13.22         35.48         78.48         35.48       -101.52          0.00        166.12
     3       21          0.00        -14.87         35.48         78.48         35.48       -101.52          0.00        -14.99
     3       22          0.00        150.85         35.48         78.48         35.48       -101.52          0.00        165.66
     3       23          0.00       -168.86         35.48         78.48         35.48       -101.52          0.00        -28.46
     3       24          0.00        -13.79         35.48         78.48         35.48       -101.52          0.00        -11.63
     3       25          0.00        168.29         35.48         78.48         35.48       -101.52          0.00        170.69
     3       26          0.00        -10.88         35.48         78.48         35.48       -101.52          0.00        164.59
     3       27          0.00        163.69         35.48         78.48         35.48       -101.52          0.00        -14.36
     3       28          0.00        -14.35         35.48         78.48         35.48       -101.52          0.00        154.00
     3       29          0.00        168.11         35.48         78.48         35.48       -101.52          0.00        -12.85
     3       30          0.00        171.93         35.48         78.48         35.48       -101.52          0.00        -10.45
     3       31          0.00        -15.55         35.48         78.48         35.48       -101.52          0.00        169.36
     3       32          0.00        164.78         35.48         78.48         35.48       -101.52          0.00        -22.93
     3       33          0.00        -12.37         35.48         78.48         35.48       -101.52          0.00         -7.59
     3       34          0.00        168.18         35.48         78.48         35.48       -101.52          0.00        175.87
     3       35          0.00         -9.53         35.48         78.48         35.48       -101.52          0.00        -12.02
     3       36          0.00        169.96         35.48         78.48         35.48       -101.52          0.00       -177.54
     3       37          0.00        170.61         35.48         78.48         35.48       -101.52          0.00        -19.66
     3       38          0.00        -11.71         35.48         78.48         35.48       -101.52          0.00        165.65
     3       39          0.00        -14.15         35.48         78.48         35.48       -101.52          0.00        154.84
     3       40          0.00          2.37         35.48         78.48         35.48       -101.52          0.00        133.45
     3       41          0.00         -9.72         35.48         78.48         35.48       -101.52          0.00         -1.55
     3       42          0.00        166.81         35.48         78.48         35.48       -101.52          0.00        -11.59
     3       43          0.00        -12.92         35.48         78.48         35.48       -101.52          0.00         12.70
     3       44          0.00        161.52         35.48         78.48         35.48       -101.52          0.00         -2.03
     3       45          0.00        160.76         35.48         78.48         35.48       -101.52          0.00        170.91
     3       46          0.00          0.86         35.48         78.48         35.48       -101.52          0.00        -41.57
     3       47          0.00        -18.19         35.48         78.48         35.48       -101.52          0.00        -13.22
     3       48          0.00        160.00         35.48         78.48         35.48       -101.52          0.00        149.21
     3       49          0.00        164.93         35.48         78.48         35.48       -101.52          0.00        -43.25
     3       50          0.00        -12.00         35.48         78.48         35.48       -101.52          0.00        -12.49
     3       51          0.00        168.23         35.48         78.48         35.48       -101.52          0.00        -55.31
     3       52          0.00       -175.10         35.48         78.48         35.48       -101.52          0.00        165.43
     3       53          0.00        164.93         35.48         78.48         35.48       -101.52          0.00       -170.86
     3       54          0.00         -8.92         35.48         78.48         35.48       -101.52          0.00       -106.32
     3       55          0.00        151.50         35.48         78.48         35.48       -101.52          0.00         84.44
     4        1          0.00       -175.65          6.13         72.94          6.13       -107.06          0.00         -6.37
     4        2          0.00        -19.12          6.13         72.94          6.13       -107.06          0.00        -13.61
     4        3          0.00        161.77          6.13         72.94          6.13       -107.06          0.00          6.15
     4        4          0.00        -13.98          6.13         72.94          6.13       -107.06          0.00        145.78
     4        5          0.00        174.47          6.13         72.94          6.13       -107.06          0.00        -17.39
     4        6          0.00        163.18          6.13         72.94          6.13       -107.06          0.00        167.73
     4        7          0.00        164.65          6.13         72.94          6.13       -107.06          0.00        166.84
     4        8          0.00        -15.29          6.13         72.94          6.13       -107.06          0.00        -18.26
     4        9          0.00        166.55          6.13         72.94          6.13       -107.06          0.00        139.37
     4       10          0.00        -16.69          6.13         72.94          6.13       -107.06          0.00        -17.76
     4       11          0.00        -18.72          6.13         72.94          6.13       -107.06          0.00       -179.17
     4       12          0.00        121.61          6.13         72.94          6.13       -107.06          0.00        161.66
     4       13          0.00        165.72          6.13         72.94          6.13       -107.06          0.00        162.15
     4       14          0.00        -18.10          6.13         72.94          6.13       -107.06          0.00        -15.86
     4       15          0.00        161.29          6.13         72.94          6.13       -107.06          0.00        -17.92
     4       16          0.00        170.72          6.13         72.94          6.13       -107.06          0.00        -18.32
     4       17          0.00        148.70          6.13         72.94          6.13       -107.06          0.00        -91.75
     4       18          0.00        -61.61          6.13         72.94          6.13       -107.06          0.00        -18.49
     4       19          0.00        -18.48          6.13         72.94          6.13       -107.06          0.00        158.30
     4       20          0.00         -2.74          6.13         72.94          6.13       -107.06          0.00         -9.94
     4       21          0.00        161.24          6.13         72.94          6.13       -107.06          0.00        161.31
     4       22          0.00        -18.91          6.13         72.94          6.13       -107.06          0.00        163.21
     4       23          0.00        -19.13          6.13         72.94          6.13       -107.06          0.00        -22.83
     4       24          0.00        162.17          6.13         72.94          6.13       -107.06          0.00        158.49
     4       25          0.00        113.68          6.13         72.94          6.13       -107.06          0.00         96.96
     4       26          0.00        -16.81          6.13         72.94          6.13       -107.06          0.00        -18.86
     4       27          0.00        -17.59          6.13         72.94          6.13       -107.06          0.00        -16.48
     4       28          0.00        171.60          6.13         72.94          6.13       -107.06          0.00        145.30
     4       29          0.00        159.74          6.13         72.94          6.13       -107.06          0.00        -28.39
     4       30          0.00        169.04          6.13         72.94          6.13       -107.06          0.00        -47.28
     4       31          0.00        -16.21          6.13         72.94          6.13       -107.06          0.00        -14.72
     4       32          0.00        -16.71          6.13         72.94          6.13       -107.06          0.00        -14.96
     4       33          0.00        163.60          6.13         72.94          6.13       -107.06          0.00        -16.67
     4       34          0.00        -16.60          6.13         72.94          6.13       -107.06          0.00        170.28
     4       35          0.00        -18.52          6.13         72.94          6.13       -107.06          0.00        -26.87
     4       36          0.00        163.65          6.13         72.94          6.13       -107.06          0.00        -22.68
     4       37          0.00        -10.81          6.13         72.94          6.13       -107.06          0.00        157.39
     4       38          0.00        178.10          6.13         72.94          6.13       -107.06          0.00        162.90
     4       39          0.00        -15.05          6.13         72.94          6.13       -107.06          0.00        164.41
     4       40          0.00        -19.17          6.13         72.94          6.13       -107.06          0.00        -24.18
     4       41          0.00        -18.06          6.13         72.94          6.13       -107.06          0.00        133.36
     4       42          0.00        -19.29          6.13         72.94          6.13       -107.06          0.00        -13.44
     4       43          0.00        166.10          6.13         72.94          6.13       -107.06          0.00        164.63
     4       44          0.00        159.58          6.13         72.94          6.13       -107.06          0.00        150.19
     4       45          0.00        -18.29          6.13         72.94          6.13       -107.06          0.00        -25.73
     4       46          0.00        163.94          6.13         72.94          6.13       -107.06          0.00        -21.77
     4       47          0.00        162.19          6.13         72.94          6.13       -107.06          0.00        156.01
     4       48          0.00        -19.17          6.13         72.94          6.13       -107.06          0.00        -19.12