# Format:          MT3DResp_1.0
# Description:     Response file generated at Mon 16 Nov 2020 05:42:56 PM CST
Phase Convention:    lead
Receiver Location (m):      55
#          X            Y            Z
    -8000.00    -10000.00         0.00
    -8000.00     -8000.00         0.00
    -8000.00     -6000.00         0.00
    -8000.00     -4000.00         0.00
    -8000.00     -2000.00         0.00
    -8000.00         0.00         0.00
    -8000.00      2000.00         0.00
    -8000.00      4000.00         0.00
    -8000.00      6000.00         0.00
    -8000.00      8000.00         0.00
    -8000.00     10000.00         0.00
    -4000.00    -10000.00         0.00
    -4000.00     -8000.00         0.00
    -4000.00     -6000.00         0.00
    -4000.00     -4000.00         0.00
    -4000.00     -2000.00         0.00
    -4000.00         0.00         0.00
    -4000.00      2000.00         0.00
    -4000.00      4000.00         0.00
    -4000.00      6000.00         0.00
    -4000.00      8000.00         0.00
    -4000.00     10000.00         0.00
        0.00    -10000.00         0.00
        0.00     -8000.00         0.00
        0.00     -6000.00         0.00
        0.00     -4000.00         0.00
        0.00     -2000.00         0.00
        0.00         0.00         0.00
        0.00      2000.00         0.00
        0.00      4000.00         0.00
        0.00      6000.00         0.00
        0.00      8000.00         0.00
        0.00     10000.00         0.00
     4000.00    -10000.00         0.00
     4000.00     -8000.00         0.00
     4000.00     -6000.00         0.00
     4000.00     -4000.00         0.00
     4000.00     -2000.00         0.00
     4000.00         0.00         0.00
     4000.00      2000.00         0.00
     4000.00      4000.00         0.00
     4000.00      6000.00         0.00
     4000.00      8000.00         0.00
     4000.00     10000.00         0.00
     8000.00    -10000.00         0.00
     8000.00     -8000.00         0.00
     8000.00     -6000.00         0.00
     8000.00     -4000.00         0.00
     8000.00     -2000.00         0.00
     8000.00         0.00         0.00
     8000.00      2000.00         0.00
     8000.00      4000.00         0.00
     8000.00      6000.00         0.00
     8000.00      8000.00         0.00
     8000.00     10000.00         0.00
Frequencies (Hz):      31
    1.00000e+02
    6.30957e+01
    3.98107e+01
    2.51189e+01
    1.58489e+01
    1.00000e+01
    6.30957e+00
    3.98107e+00
    2.51189e+00
    1.58489e+00
    1.00000e+00
    6.30957e-01
    3.98107e-01
    2.51189e-01
    1.58489e-01
    1.00000e-01
    6.30957e-02
    3.98107e-02
    2.51189e-02
    1.58489e-02
    1.00000e-02
    6.30957e-03
    3.98107e-03
    2.51189e-03
    1.58489e-03
    1.00000e-03
    6.30957e-04
    3.98107e-04
    2.51189e-04
    1.58489e-04
    1.00000e-04
DataType:  Rho_Phs
DataComp:     4
RhoXY
PhsXY
RhoYX
PhsYX
Data Block:     1705
# FreqNo.  RxNo.        RhoXX         PhsXX         RhoXY         PhsXY         RhoYX         PhsYX         RhoYY         PhsYY
     1        1          0.77        178.29      10371.38         43.79       9947.68       -134.97          0.77         -1.71
     1        2          0.77        178.29      10371.38         43.79       9947.68       -134.97          0.77         -1.71
     1        3          0.77        178.29      10371.38         43.79       9947.68       -134.97          0.77         -1.71
     1        4          0.77        178.29      10371.38         43.79       9947.68       -134.97          0.77         -1.71
     1        5          0.77        178.29      10371.38         43.79       9947.68       -134.97          0.77         -1.71
     1        6          0.77        178.29      10371.38         43.79       9947.67       -134.97          0.77         -1.71
     1        7          0.77        178.29      10371.38         43.79       9947.68       -134.97          0.77         -1.71
     1        8          0.77        178.29      10371.38         43.79       9947.68       -134.97          0.77         -1.71
     1        9          0.77        178.29      10371.38         43.79       9947.68       -134.97          0.77         -1.71
     1       10          0.77        178.29      10371.38         43.79       9947.68       -134.97          0.77         -1.71
     1       11          0.77        178.29      10371.38         43.79       9947.69       -134.97          0.77         -1.71
     1       12          0.77        178.29      10371.38         43.79       9947.68       -134.97          0.77         -1.71
     1       13          0.77        178.29      10371.38         43.79       9947.67       -134.97          0.77         -1.71
     1       14          0.77        178.29      10371.38         43.79       9947.67       -134.97          0.77         -1.71
     1       15          0.77        178.29      10371.38         43.79       9947.67       -134.97          0.77         -1.71
     1       16          0.77        178.29      10371.38         43.79       9947.67       -134.97          0.77         -1.71
     1       17          0.77        178.29      10371.38         43.79       9947.67       -134.97          0.77         -1.71
     1       18          0.77        178.29      10371.38         43.79       9947.67       -134.97          0.77         -1.71
     1       19          0.77        178.29      10371.38         43.79       9947.67       -134.97          0.77         -1.71
     1       20          0.77        178.29      10371.38         43.79       9947.67       -134.97          0.77         -1.71
     1       21          0.77        178.29      10371.38         43.79       9947.67       -134.97          0.77         -1.71
     1       22          0.77        178.29      10371.38         43.79       9947.68       -134.97          0.77         -1.71
     1       23          0.77        178.29      10371.38         43.79       9947.67       -134.97          0.77         -1.71
     1       24          0.77        178.29      10371.38         43.79       9947.67       -134.97          0.77         -1.71
     1       25          0.77        178.29      10371.38         43.79       9947.67       -134.97          0.77         -1.71
     1       26          0.77        178.29      10371.38         43.79       9947.66       -134.97          0.77         -1.71
     1       27          0.77        178.29      10371.38         43.79       9947.66       -134.97          0.77         -1.71
     1       28          0.77        178.29      10371.38         43.79       9947.66       -134.97          0.77         -1.71
     1       29          0.77        178.29      10371.38         43.79       9947.66       -134.97          0.77         -1.71
     1       30          0.77        178.29      10371.38         43.79       9947.66       -134.97          0.77         -1.71
     1       31          0.77        178.29      10371.38         43.79       9947.67       -134.97          0.77         -1.71
     1       32          0.77        178.29      10371.38         43.79       9947.67       -134.97          0.77         -1.71
     1       33          0.77        178.29      10371.38         43.79       9947.67       -134.97          0.77         -1.71
     1       34          0.77        178.29      10371.38         43.79       9947.68       -134.97          0.77         -1.71
     1       35          0.77        178.29      10371.38         43.79       9947.67       -134.97          0.77         -1.71
     1       36          0.77        178.29      10371.38         43.79       9947.67       -134.97          0.77         -1.71
     1       37          0.77        178.29      10371.38         43.79       9947.67       -134.97          0.77         -1.71
     1       38          0.77        178.29      10371.38         43.79       9947.67       -134.97          0.77         -1.71
     1       39          0.77        178.29      10371.38         43.79       9947.67       -134.97          0.77         -1.71
     1       40          0.77        178.29      10371.38         43.79       9947.67       -134.97          0.77         -1.71
     1       41          0.77        178.29      10371.38         43.79       9947.67       -134.97          0.77         -1.71
     1       42          0.77        178.29      10371.38         43.79       9947.67       -134.97          0.77         -1.71
     1       43          0.77        178.29      10371.38         43.79       9947.67       -134.97          0.77         -1.71
     1       44          0.77        178.29      10371.38         43.79       9947.68       -134.97          0.77         -1.71
     1       45          0.77        178.29      10371.38         43.79       9947.69       -134.97          0.77         -1.71
     1       46          0.77        178.29      10371.38         43.79       9947.68       -134.97          0.77         -1.71
     1       47          0.77        178.29      10371.38         43.79       9947.68       -134.97          0.77         -1.71
     1       48          0.77        178.29      10371.38         43.79       9947.68       -134.97          0.77         -1.71
     1       49          0.77        178.29      10371.38         43.79       9947.68       -134.97          0.77         -1.71
     1       50          0.77        178.29      10371.38         43.79       9947.67       -134.97          0.77         -1.71
     1       51          0.77        178.29      10371.38         43.79       9947.68       -134.97          0.77         -1.71
     1       52          0.77        178.29      10371.38         43.79       9947.68       -134.97          0.77         -1.71
     1       53          0.77        178.29      10371.38         43.79       9947.68       -134.97          0.77         -1.71
     1       54          0.77        178.29      10371.38         43.79       9947.68       -134.97          0.77         -1.71
     1       55          0.77        178.29      10371.38         43.79       9947.68       -134.97          0.77         -1.71
     2        1          4.13       -135.31      11252.41         44.94       9808.41       -135.04          4.13         44.69
     2        2          4.13       -135.31      11252.41         44.94       9808.41       -135.04          4.13         44.69
     2        3          4.13       -135.31      11252.41         44.94       9808.41       -135.04          4.13         44.69
     2        4          4.13       -135.31      11252.41         44.94       9808.41       -135.04          4.13         44.69
     2        5          4.13       -135.31      11252.42         44.94       9808.41       -135.04          4.13         44.69
     2        6          4.13       -135.31      11252.42         44.94       9808.41       -135.04          4.13         44.69
     2        7          4.13       -135.31      11252.42         44.94       9808.41       -135.04          4.13         44.69
     2        8          4.13       -135.31      11252.41         44.94       9808.41       -135.04          4.13         44.69
     2        9          4.13       -135.31      11252.41         44.94       9808.41       -135.04          4.13         44.69
     2       10          4.13       -135.31      11252.41         44.94       9808.41       -135.04          4.13         44.69
     2       11          4.13       -135.31      11252.41         44.94       9808.41       -135.04          4.13         44.69
     2       12          4.13       -135.31      11252.41         44.94       9808.41       -135.04          4.13         44.69
     2       13          4.13       -135.31      11252.41         44.94       9808.42       -135.04          4.13         44.69
     2       14          4.13       -135.31      11252.41         44.94       9808.41       -135.04          4.13         44.69
     2       15          4.13       -135.31      11252.41         44.94       9808.41       -135.04          4.13         44.69
     2       16          4.13       -135.31      11252.42         44.94       9808.41       -135.04          4.13         44.69
     2       17          4.13       -135.31      11252.42         44.94       9808.41       -135.04          4.13         44.69
     2       18          4.13       -135.31      11252.42         44.94       9808.41       -135.04          4.13         44.69
     2       19          4.13       -135.31      11252.41         44.94       9808.41       -135.04          4.13         44.69
     2       20          4.13       -135.31      11252.41         44.94       9808.42       -135.04          4.13         44.69
     2       21          4.13       -135.31      11252.41         44.94       9808.42       -135.04          4.13         44.69
     2       22          4.13       -135.31      11252.41         44.94       9808.41       -135.04          4.13         44.69
     2       23          4.13       -135.31      11252.41         44.94       9808.42       -135.04          4.13         44.69
     2       24          4.13       -135.31      11252.41         44.94       9808.42       -135.04          4.13         44.69
     2       25          4.13       -135.31      11252.41         44.94       9808.42       -135.04          4.13         44.69
     2       26          4.13       -135.31      11252.41         44.94       9808.42       -135.04          4.13         44.69
     2       27          4.13       -135.31      11252.42         44.94       9808.41       -135.04          4.13         44.69
     2       28          4.13       -135.31      11252.42         44.94       9808.41       -135.04          4.13         44.69
     2       29          4.13       -135.31      11252.42         44.94       9808.41       -135.04          4.13         44.69
     2       30          4.13       -135.31      11252.41         44.94       9808.42       -135.04          4.13         44.69
     2       31          4.13       -135.31      11252.41         44.94       9808.42       -135.04          4.13         44.69
     2       32          4.13       -135.31      11252.41         44.94       9808.42       -135.04          4.13         44.69
     2       33          4.13       -135.31      11252.41         44.94       9808.42       -135.04          4.13         44.69
     2       34          4.13       -135.31      11252.41         44.94       9808.41       -135.04          4.13         44.69
     2       35          4.13       -135.31      11252.41         44.94       9808.42       -135.04          4.13         44.69
     2       36          4.13       -135.31      11252.41         44.94       9808.42       -135.04          4.13         44.69
     2       37          4.13       -135.31      11252.41         44.94       9808.41       -135.04          4.13         44.69
     2       38          4.13       -135.31      11252.42         44.94       9808.41       -135.04          4.13         44.69
     2       39          4.13       -135.31      11252.42         44.94       9808.41       -135.04          4.13         44.69
     2       40          4.13       -135.31      11252.42         44.94       9808.41       -135.04          4.13         44.69
     2       41          4.13       -135.31      11252.41         44.94       9808.41       -135.04          4.13         44.69
     2       42          4.13       -135.31      11252.41         44.94       9808.41       -135.04          4.13         44.69
     2       43          4.13       -135.31      11252.41         44.94       9808.42       -135.04          4.13         44.69
     2       44          4.13       -135.31      11252.41         44.94       9808.41       -135.04          4.13         44.69
     2       45          4.13       -135.31      11252.41         44.94       9808.41       -135.04          4.13         44.69
     2       46          4.13       -135.31      11252.41         44.94       9808.41       -135.04          4.13         44.69
     2       47          4.13       -135.31      11252.41         44.94       9808.41       -135.04          4.13         44.69
     2       48          4.13       -135.31      11252.41         44.94       9808.41       -135.04          4.13         44.69
     2       49          4.13       -135.31      11252.42         44.94       9808.41       -135.04          4.13         44.69
     2       50          4.13       -135.31      11252.42         44.94       9808.41       -135.04          4.13         44.69
     2       51          4.13       -135.31      11252.42         44.94       9808.41       -135.04          4.13         44.69
     2       52          4.13       -135.31      11252.41         44.94       9808.41       -135.04          4.13         44.69
     2       53          4.13       -135.31      11252.41         44.94       9808.41       -135.04          4.13         44.69
     2       54          4.13       -135.31      11252.41         44.94       9808.41       -135.04          4.13         44.69
     2       55          4.13       -135.31      11252.41         44.94       9808.41       -135.04          4.13         44.69
     3        1         16.08        -96.41      11961.88         48.88       9656.72       -135.74         16.08         83.59
     3        2         16.08        -96.41      11961.89         48.88       9656.73       -135.74         16.08         83.59
     3        3         16.08        -96.41      11961.89         48.88       9656.74       -135.74         16.08         83.59
     3        4         16.08        -96.41      11961.89         48.88       9656.75       -135.74         16.08         83.59
     3        5         16.08        -96.41      11961.89         48.88       9656.75       -135.74         16.08         83.59
     3        6         16.08        -96.41      11961.89         48.88       9656.75       -135.74         16.08         83.59
     3        7         16.08        -96.41      11961.89         48.88       9656.75       -135.74         16.08         83.59
     3        8         16.08        -96.41      11961.89         48.88       9656.75       -135.74         16.08         83.59
     3        9         16.08        -96.41      11961.89         48.88       9656.74       -135.74         16.08         83.59
     3       10         16.08        -96.41      11961.89         48.88       9656.73       -135.74         16.08         83.59
     3       11         16.08        -96.41      11961.88         48.88       9656.72       -135.74         16.08         83.59
     3       12         16.08        -96.41      11961.89         48.88       9656.75       -135.74         16.08         83.59
     3       13         16.08        -96.41      11961.89         48.88       9656.76       -135.74         16.08         83.59
     3       14         16.08        -96.41      11961.89         48.88       9656.77       -135.74         16.08         83.59
     3       15         16.08        -96.41      11961.89         48.88       9656.77       -135.74         16.08         83.59
     3       16         16.08        -96.41      11961.89         48.88       9656.77       -135.74         16.08         83.59
     3       17         16.08        -96.41      11961.89         48.88       9656.77       -135.74         16.08         83.59
     3       18         16.08        -96.41      11961.89         48.88       9656.77       -135.74         16.08         83.59
     3       19         16.08        -96.41      11961.89         48.88       9656.77       -135.74         16.08         83.59
     3       20         16.08        -96.41      11961.89         48.88       9656.76       -135.74         16.08         83.59
     3       21         16.08        -96.41      11961.89         48.88       9656.76       -135.74         16.08         83.59
     3       22         16.08        -96.41      11961.89         48.88       9656.75       -135.74         16.08         83.59
     3       23         16.08        -96.41      11961.89         48.88       9656.75       -135.74         16.08         83.59
     3       24         16.08        -96.41      11961.89         48.88       9656.77       -135.74         16.08         83.59
     3       25         16.08        -96.41      11961.89         48.88       9656.77       -135.74         16.08         83.59
     3       26         16.08        -96.41      11961.89         48.88       9656.78       -135.74         16.08         83.59
     3       27         16.08        -96.41      11961.89         48.88       9656.78       -135.74         16.08         83.59
     3       28         16.08        -96.41      11961.89         48.88       9656.78       -135.74         16.08         83.59
     3       29         16.08        -96.41      11961.89         48.88       9656.78       -135.74         16.08         83.59
     3       30         16.08        -96.41      11961.89         48.88       9656.78       -135.74         16.08         83.59
     3       31         16.08        -96.41      11961.89         48.88       9656.77       -135.74         16.08         83.59
     3       32         16.08        -96.41      11961.89         48.88       9656.77       -135.74         16.08         83.59
     3       33         16.08        -96.41      11961.89         48.88       9656.75       -135.74         16.08         83.59
     3       34         16.08        -96.41      11961.89         48.88       9656.75       -135.74         16.08         83.59
     3       35         16.08        -96.41      11961.89         48.88       9656.76       -135.74         16.08         83.59
     3       36         16.08        -96.41      11961.89         48.88       9656.76       -135.74         16.08         83.59
     3       37         16.08        -96.41      11961.89         48.88       9656.77       -135.74         16.08         83.59
     3       38         16.08        -96.41      11961.89         48.88       9656.77       -135.74         16.08         83.59
     3       39         16.08        -96.41      11961.89         48.88       9656.77       -135.74         16.08         83.59
     3       40         16.08        -96.41      11961.89         48.88       9656.77       -135.74         16.08         83.59
     3       41         16.08        -96.41      11961.89         48.88       9656.77       -135.74         16.08         83.59
     3       42         16.08        -96.41      11961.89         48.88       9656.77       -135.74         16.08         83.59
     3       43         16.08        -96.41      11961.89         48.88       9656.76       -135.74         16.08         83.59
     3       44         16.08        -96.41      11961.89         48.88       9656.75       -135.74         16.08         83.59
     3       45         16.08        -96.41      11961.88         48.88       9656.72       -135.74         16.08         83.59
     3       46         16.08        -96.41      11961.89         48.88       9656.73       -135.74         16.08         83.59
     3       47         16.08        -96.41      11961.89         48.88       9656.74       -135.74         16.08         83.59
     3       48         16.08        -96.41      11961.89         48.88       9656.75       -135.74         16.08         83.59
     3       49         16.08        -96.41      11961.89         48.88       9656.75       -135.74         16.08         83.59
     3       50         16.08        -96.41      11961.89         48.88       9656.75       -135.74         16.08         83.59
     3       51         16.08        -96.41      11961.89         48.88       9656.75       -135.74         16.08         83.59
     3       52         16.08        -96.41      11961.89         48.88       9656.75       -135.74         16.08         83.59
     3       53         16.08        -96.41      11961.89         48.88       9656.74       -135.74         16.08         83.59
     3       54         16.08        -96.41      11961.89         48.88       9656.73       -135.74         16.08         83.59
     3       55         16.08        -96.41      11961.88         48.88       9656.72       -135.74         16.08         83.59
     4        1         45.88        -63.07      11583.32         54.88       9766.13       -137.22         45.89        116.93
     4        2         45.88        -63.07      11583.32         54.88       9766.14       -137.22         45.89        116.93
     4        3         45.88        -63.07      11583.32         54.88       9766.16       -137.22         45.89        116.93
     4        4         45.88        -63.07      11583.32         54.88       9766.16       -137.22         45.89        116.93
     4        5         45.88        -63.07      11583.33         54.88       9766.17       -137.22         45.89        116.93
     4        6         45.88        -63.07      11583.33         54.88       9766.17       -137.22         45.89        116.93
     4        7         45.88        -63.07      11583.33         54.88       9766.17       -137.22         45.89        116.93
     4        8         45.88        -63.07      11583.32         54.88       9766.16       -137.22         45.89        116.93
     4        9         45.88        -63.07      11583.32         54.88       9766.15       -137.22         45.89        116.93
     4       10         45.88        -63.07      11583.32         54.88       9766.14       -137.22         45.89        116.93
     4       11         45.88        -63.07      11583.32         54.88       9766.13       -137.22         45.89        116.93
     4       12         45.88        -63.07      11583.32         54.88       9766.17       -137.22         45.89        116.93
     4       13         45.88        -63.07      11583.32         54.88       9766.18       -137.22         45.89        116.93
     4       14         45.88        -63.07      11583.33         54.88       9766.19       -137.22         45.89        116.93
     4       15         45.88        -63.07      11583.33         54.88       9766.20       -137.22         45.89        116.93
     4       16         45.88        -63.07      11583.33         54.88       9766.21       -137.22         45.89        116.93
     4       17         45.88        -63.07      11583.33         54.88       9766.21       -137.22         45.89        116.93
     4       18         45.88        -63.07      11583.33         54.88       9766.20       -137.22         45.89        116.93
     4       19         45.88        -63.07      11583.33         54.88       9766.20       -137.22         45.89        116.93
     4       20         45.88        -63.07      11583.33         54.88       9766.19       -137.22         45.89        116.93
     4       21         45.88        -63.07      11583.32         54.88       9766.18       -137.22         45.89        116.93
     4       22         45.88        -63.07      11583.32         54.88       9766.16       -137.22         45.89        116.93
     4       23         45.88        -63.07      11583.32         54.88       9766.18       -137.22         45.89        116.93
     4       24         45.88        -63.07      11583.32         54.88       9766.19       -137.22         45.89        116.93
     4       25         45.88        -63.07      11583.33         54.88       9766.20       -137.22         45.89        116.93
     4       26         45.88        -63.07      11583.33         54.88       9766.21       -137.22         45.89        116.93
     4       27         45.88        -63.07      11583.33         54.88       9766.22       -137.22         45.89        116.93
     4       28         45.88        -63.07      11583.33         54.88       9766.22       -137.22         45.89        116.93
     4       29         45.88        -63.07      11583.33         54.88       9766.22       -137.22         45.89        116.93
     4       30         45.88        -63.07      11583.33         54.88       9766.21       -137.22         45.89        116.93
     4       31         45.88        -63.07      11583.33         54.88       9766.20       -137.22         45.89        116.93
     4       32         45.88        -63.07      11583.32         54.88       9766.19       -137.22         45.89        116.93
     4       33         45.88        -63.07      11583.32         54.88       9766.18       -137.22         45.89        116.93
     4       34         45.88        -63.07      11583.32         54.88       9766.16       -137.22         45.89        116.93
     4       35         45.88        -63.07      11583.32         54.88       9766.18       -137.22         45.89        116.93
     4       36         45.88        -63.07      11583.33         54.88       9766.19       -137.22         45.89        116.93
     4       37         45.88        -63.07      11583.33         54.88       9766.20       -137.22         45.89        116.93
     4       38         45.88        -63.07      11583.33         54.88       9766.20       -137.22         45.89        116.93
     4       39         45.88        -63.07      11583.33         54.88       9766.21       -137.22         45.89        116.93
     4       40         45.88        -63.07      11583.33         54.88       9766.21       -137.22         45.89        116.93
     4       41         45.88        -63.07      11583.33         54.88       9766.20       -137.22         45.89        116.93
     4       42         45.88        -63.07      11583.33         54.88       9766.19       -137.22         45.89        116.93
     4       43         45.88        -63.07      11583.32         54.88       9766.18       -137.22         45.89        116.93
     4       44         45.88        -63.07      11583.32         54.88       9766.17       -137.22         45.89        116.93
     4       45         45.88        -63.07      11583.32         54.88       9766.13       -137.22         45.89        116.93