# Format:          MT3DResp_1.0
# Description:     Response file generated at Tue 28 Apr 2020 04:05:35 PM CST
Phase Convention:    lead
Receiver Location (m):      55
#          X            Y            Z
    -8000.00    -10000.00         0.00
    -8000.00     -8000.00         0.00
    -8000.00     -6000.00         0.00
    -8000.00     -4000.00         0.00
    -8000.00     -2000.00         0.00
    -8000.00         0.00         0.00
    -8000.00      2000.00         0.00
    -8000.00      4000.00         0.00
    -8000.00      6000.00         0.00
    -8000.00      8000.00         0.00
    -8000.00     10000.00         0.00
    -4000.00    -10000.00         0.00
    -4000.00     -8000.00         0.00
    -4000.00     -6000.00         0.00
    -4000.00     -4000.00         0.00
    -4000.00     -2000.00         0.00
    -4000.00         0.00         0.00
    -4000.00      2000.00         0.00
    -4000.00      4000.00         0.00
    -4000.00      6000.00         0.00
    -4000.00      8000.00         0.00
    -4000.00     10000.00         0.00
        0.00    -10000.00         0.00
        0.00     -8000.00         0.00
        0.00     -6000.00         0.00
        0.00     -4000.00         0.00
        0.00     -2000.00         0.00
        0.00         0.00         0.00
        0.00      2000.00         0.00
        0.00      4000.00         0.00
        0.00      6000.00         0.00
        0.00      8000.00         0.00
        0.00     10000.00         0.00
     4000.00    -10000.00         0.00
     4000.00     -8000.00         0.00
     4000.00     -6000.00         0.00
     4000.00     -4000.00         0.00
     4000.00     -2000.00         0.00
     4000.00         0.00         0.00
     4000.00      2000.00         0.00
     4000.00      4000.00         0.00
     4000.00      6000.00         0.00
     4000.00      8000.00         0.00
     4000.00     10000.00         0.00
     8000.00    -10000.00         0.00
     8000.00     -8000.00         0.00
     8000.00     -6000.00         0.00
     8000.00     -4000.00         0.00
     8000.00     -2000.00         0.00
     8000.00         0.00         0.00
     8000.00      2000.00         0.00
     8000.00      4000.00         0.00
     8000.00      6000.00         0.00
     8000.00      8000.00         0.00
     8000.00     10000.00         0.00
Frequencies (Hz):      31
    1.00000e+02
    6.30957e+01
    3.98107e+01
    2.51189e+01
    1.58489e+01
    1.00000e+01
    6.30957e+00
    3.98107e+00
    2.51189e+00
    1.58489e+00
    1.00000e+00
    6.30957e-01
    3.98107e-01
    2.51189e-01
    1.58489e-01
    1.00000e-01
    6.30957e-02
    3.98107e-02
    2.51189e-02
    1.58489e-02
    1.00000e-02
    6.30957e-03
    3.98107e-03
    2.51189e-03
    1.58489e-03
    1.00000e-03
    6.30957e-04
    3.98107e-04
    2.51189e-04
    1.58489e-04
    1.00000e-04
DataType:  Rho_Phs
DataComp:     4
RhoXY
PhsXY
RhoYX
PhsYX
Data Block:     1705
# FreqNo.  RxNo.        RhoXX         PhsXX         RhoXY         PhsXY         RhoYX         PhsYX         RhoYY         PhsYY
     1        1          0.77       -177.77      10352.04         43.86       9898.76       -134.98          0.77          2.23
     1        2          0.77       -177.76      10352.04         43.86       9898.73       -134.98          0.77          2.24
     1        3          0.77       -177.76      10352.04         43.86       9898.70       -134.98          0.77          2.24
     1        4          0.77       -177.76      10352.04         43.86       9898.69       -134.98          0.77          2.24
     1        5          0.77       -177.76      10352.04         43.86       9898.68       -134.98          0.77          2.24
     1        6          0.77       -177.76      10352.04         43.86       9898.68       -134.98          0.77          2.24
     1        7          0.77       -177.76      10352.04         43.86       9898.68       -134.98          0.77          2.24
     1        8          0.77       -177.76      10352.04         43.86       9898.69       -134.98          0.77          2.24
     1        9          0.77       -177.76      10352.04         43.86       9898.70       -134.98          0.77          2.24
     1       10          0.77       -177.76      10352.04         43.86       9898.73       -134.98          0.77          2.24
     1       11          0.77       -177.77      10352.04         43.86       9898.76       -134.98          0.77          2.23
     1       12          0.77       -177.76      10352.04         43.86       9898.71       -134.98          0.77          2.24
     1       13          0.77       -177.76      10352.04         43.86       9898.68       -134.98          0.77          2.24
     1       14          0.77       -177.76      10352.03         43.86       9898.65       -134.98          0.77          2.24
     1       15          0.77       -177.76      10352.03         43.86       9898.64       -134.98          0.77          2.24
     1       16          0.77       -177.76      10352.03         43.86       9898.63       -134.98          0.77          2.24
     1       17          0.77       -177.76      10352.03         43.86       9898.63       -134.98          0.77          2.24
     1       18          0.77       -177.76      10352.03         43.86       9898.63       -134.98          0.77          2.24
     1       19          0.77       -177.76      10352.03         43.86       9898.64       -134.98          0.77          2.24
     1       20          0.77       -177.76      10352.03         43.86       9898.65       -134.98          0.77          2.24
     1       21          0.77       -177.76      10352.04         43.86       9898.68       -134.98          0.77          2.24
     1       22          0.77       -177.76      10352.04         43.86       9898.71       -134.98          0.77          2.24
     1       23          0.77       -177.76      10352.04         43.86       9898.70       -134.98          0.77          2.24
     1       24          0.77       -177.76      10352.04         43.86       9898.66       -134.98          0.77          2.24
     1       25          0.77       -177.76      10352.03         43.86       9898.64       -134.98          0.77          2.24
     1       26          0.77       -177.75      10352.03         43.86       9898.62       -134.98          0.77          2.25
     1       27          0.77       -177.75      10352.03         43.86       9898.61       -134.98          0.77          2.25
     1       28          0.77       -177.75      10352.03         43.86       9898.61       -134.98          0.77          2.25
     1       29          0.77       -177.75      10352.03         43.86       9898.61       -134.98          0.77          2.25
     1       30          0.77       -177.75      10352.03         43.86       9898.62       -134.98          0.77          2.25
     1       31          0.77       -177.76      10352.03         43.86       9898.64       -134.98          0.77          2.24
     1       32          0.77       -177.76      10352.04         43.86       9898.66       -134.98          0.77          2.24
     1       33          0.77       -177.76      10352.04         43.86       9898.70       -134.98          0.77          2.24
     1       34          0.77       -177.76      10352.04         43.86       9898.71       -134.98          0.77          2.24
     1       35          0.77       -177.76      10352.04         43.86       9898.68       -134.98          0.77          2.24
     1       36          0.77       -177.76      10352.03         43.86       9898.65       -134.98          0.77          2.24
     1       37          0.77       -177.76      10352.03         43.86       9898.64       -134.98          0.77          2.24
     1       38          0.77       -177.76      10352.03         43.86       9898.63       -134.98          0.77          2.24
     1       39          0.77       -177.76      10352.03         43.86       9898.63       -134.98          0.77          2.24
     1       40          0.77       -177.76      10352.03         43.86       9898.63       -134.98          0.77          2.24
     1       41          0.77       -177.76      10352.03         43.86       9898.64       -134.98          0.77          2.24
     1       42          0.77       -177.76      10352.03         43.86       9898.65       -134.98          0.77          2.24
     1       43          0.77       -177.76      10352.04         43.86       9898.68       -134.98          0.77          2.24
     1       44          0.77       -177.76      10352.04         43.86       9898.71       -134.98          0.77          2.24
     1       45          0.77       -177.77      10352.04         43.86       9898.76       -134.98          0.77          2.23
     1       46          0.77       -177.76      10352.04         43.86       9898.73       -134.98          0.77          2.24
     1       47          0.77       -177.76      10352.04         43.86       9898.70       -134.98          0.77          2.24
     1       48          0.77       -177.76      10352.04         43.86       9898.69       -134.98          0.77          2.24
     1       49          0.77       -177.76      10352.04         43.86       9898.68       -134.98          0.77          2.24
     1       50          0.77       -177.76      10352.04         43.86       9898.68       -134.98          0.77          2.24
     1       51          0.77       -177.76      10352.04         43.86       9898.68       -134.98          0.77          2.24
     1       52          0.77       -177.76      10352.04         43.86       9898.69       -134.98          0.77          2.24
     1       53          0.77       -177.76      10352.04         43.86       9898.70       -134.98          0.77          2.24
     1       54          0.77       -177.76      10352.04         43.86       9898.73       -134.98          0.77          2.24
     1       55          0.77       -177.77      10352.04         43.86       9898.76       -134.98          0.77          2.23
     2        1          4.14       -132.87      11250.91         44.91       9806.41       -135.24          4.14         47.13
     2        2          4.14       -132.87      11250.91         44.91       9806.41       -135.24          4.14         47.14
     2        3          4.14       -132.86      11250.91         44.91       9806.41       -135.24          4.14         47.14
     2        4          4.14       -132.86      11250.91         44.91       9806.40       -135.24          4.14         47.14
     2        5          4.14       -132.86      11250.91         44.91       9806.39       -135.24          4.14         47.14
     2        6          4.14       -132.86      11250.91         44.91       9806.39       -135.24          4.14         47.14
     2        7          4.14       -132.86      11250.91         44.91       9806.39       -135.24          4.14         47.14
     2        8          4.14       -132.86      11250.91         44.91       9806.40       -135.24          4.14         47.14
     2        9          4.14       -132.86      11250.91         44.91       9806.41       -135.24          4.14         47.14
     2       10          4.14       -132.87      11250.91         44.91       9806.42       -135.24          4.14         47.14
     2       11          4.14       -132.87      11250.91         44.91       9806.42       -135.24          4.14         47.13
     2       12          4.14       -132.86      11250.91         44.91       9806.41       -135.24          4.14         47.14
     2       13          4.14       -132.86      11250.91         44.91       9806.41       -135.24          4.14         47.14
     2       14          4.14       -132.86      11250.91         44.91       9806.40       -135.24          4.14         47.14
     2       15          4.14       -132.86      11250.91         44.91       9806.39       -135.24          4.14         47.14
     2       16          4.14       -132.86      11250.91         44.91       9806.39       -135.24          4.14         47.14
     2       17          4.14       -132.86      11250.91         44.91       9806.38       -135.24          4.14         47.14
     2       18          4.14       -132.86      11250.91         44.91       9806.39       -135.24          4.14         47.14
     2       19          4.14       -132.86      11250.91         44.91       9806.39       -135.24          4.14         47.14
     2       20          4.14       -132.86      11250.91         44.91       9806.40       -135.24          4.14         47.14
     2       21          4.14       -132.86      11250.91         44.91       9806.41       -135.24          4.14         47.14
     2       22          4.14       -132.86      11250.91         44.91       9806.41       -135.24          4.14         47.14
     2       23          4.14       -132.86      11250.91         44.91       9806.41       -135.24          4.14         47.14
     2       24          4.14       -132.86      11250.91         44.91       9806.40       -135.24          4.14         47.14
     2       25          4.14       -132.86      11250.91         44.91       9806.40       -135.24          4.14         47.14
     2       26          4.14       -132.86      11250.91         44.91       9806.39       -135.24          4.14         47.14
     2       27          4.14       -132.86      11250.91         44.91       9806.38       -135.24          4.14         47.14
     2       28          4.14       -132.86      11250.91         44.91       9806.38       -135.24          4.14         47.14
     2       29          4.14       -132.86      11250.91         44.91       9806.38       -135.24          4.14         47.14
     2       30          4.14       -132.86      11250.91         44.91       9806.39       -135.24          4.14         47.14
     2       31          4.14       -132.86      11250.91         44.91       9806.40       -135.24          4.14         47.14
     2       32          4.14       -132.86      11250.91         44.91       9806.40       -135.24          4.14         47.14
     2       33          4.14       -132.86      11250.91         44.91       9806.41       -135.24          4.14         47.14
     2       34          4.14       -132.86      11250.91         44.91       9806.41       -135.24          4.14         47.14
     2       35          4.14       -132.86      11250.91         44.91       9806.41       -135.24          4.14         47.14
     2       36          4.14       -132.86      11250.91         44.91       9806.40       -135.24          4.14         47.14
     2       37          4.14       -132.86      11250.91         44.91       9806.39       -135.24          4.14         47.14
     2       38          4.14       -132.86      11250.91         44.91       9806.39       -135.24          4.14         47.14
     2       39          4.14       -132.86      11250.91         44.91       9806.38       -135.24          4.14         47.14
     2       40          4.14       -132.86      11250.91         44.91       9806.39       -135.24          4.14         47.14
     2       41          4.14       -132.86      11250.91         44.91       9806.39       -135.24          4.14         47.14
     2       42          4.14       -132.86      11250.91         44.91       9806.40       -135.24          4.14         47.14
     2       43          4.14       -132.86      11250.91         44.91       9806.41       -135.24          4.14         47.14
     2       44          4.14       -132.86      11250.91         44.91       9806.41       -135.24          4.14         47.14
     2       45          4.14       -132.87      11250.91         44.91       9806.42       -135.24          4.14         47.13
     2       46          4.14       -132.87      11250.91         44.91       9806.42       -135.24          4.14         47.14
     2       47          4.14       -132.86      11250.91         44.91       9806.41       -135.24          4.14         47.14
     2       48          4.14       -132.86      11250.91         44.91       9806.40       -135.24          4.14         47.14
     2       49          4.14       -132.86      11250.91         44.91       9806.39       -135.24          4.14         47.14
     2       50          4.14       -132.86      11250.91         44.91       9806.39       -135.24          4.14         47.14
     2       51          4.14       -132.86      11250.91         44.91       9806.39       -135.24          4.14         47.14
     2       52          4.14       -132.86      11250.91         44.91       9806.40       -135.24          4.14         47.14
     2       53          4.14       -132.86      11250.91         44.91       9806.41       -135.24          4.14         47.14
     2       54          4.14       -132.87      11250.91         44.91       9806.41       -135.24          4.14         47.14
     2       55          4.14       -132.87      11250.91         44.91       9806.41       -135.24          4.14         47.13
     3        1         16.12        -94.90      11990.97         48.83       9728.59       -135.96         16.12         85.10
     3        2         16.12        -94.90      11990.97         48.83       9728.66       -135.96         16.12         85.10
     3        3         16.12        -94.89      11990.98         48.83       9728.71       -135.96         16.12         85.11
     3        4         16.12        -94.89      11990.98         48.83       9728.73       -135.96         16.12         85.11
     3        5         16.12        -94.89      11990.98         48.83       9728.75       -135.96         16.12         85.11
     3        6         16.12        -94.89      11990.98         48.83       9728.75       -135.96         16.12         85.11
     3        7         16.12        -94.89      11990.98         48.83       9728.75       -135.96         16.12         85.11
     3        8         16.12        -94.89      11990.98         48.83       9728.73       -135.96         16.12         85.11
     3        9         16.12        -94.90      11990.98         48.83       9728.70       -135.96         16.12         85.11
     3       10         16.12        -94.90      11990.97         48.83       9728.65       -135.96         16.12         85.10
     3       11         16.12        -94.90      11990.97         48.83       9728.58       -135.96         16.12         85.10
     3       12         16.12        -94.90      11990.98         48.83       9728.67       -135.96         16.12         85.11
     3       13         16.12        -94.89      11990.98         48.83       9728.74       -135.96         16.12         85.11
     3       14         16.12        -94.89      11990.99         48.83       9728.79       -135.96         16.12         85.11
     3       15         16.12        -94.89      11990.99         48.83       9728.82       -135.96         16.12         85.11
     3       16         16.12        -94.89      11990.99         48.83       9728.83       -135.96         16.12         85.11
     3       17         16.12        -94.89      11990.99         48.83       9728.84       -135.96         16.12         85.11
     3       18         16.12        -94.89      11990.99         48.83       9728.83       -135.96         16.12         85.11
     3       19         16.12        -94.89      11990.99         48.83       9728.82       -135.96         16.12         85.11
     3       20         16.12        -94.89      11990.99         48.83       9728.79       -135.96         16.12         85.11
     3       21         16.12        -94.89      11990.98         48.83       9728.74       -135.96         16.12         85.11
     3       22         16.12        -94.90      11990.97         48.83       9728.67       -135.96         16.12         85.11
     3       23         16.12        -94.90      11990.98         48.83       9728.70       -135.96         16.12         85.11
     3       24         16.12        -94.89      11990.98         48.83       9728.77       -135.96         16.12         85.11
     3       25         16.12        -94.89      11990.99         48.83       9728.82       -135.96         16.12         85.11
     3       26         16.12        -94.89      11990.99         48.83       9728.85       -135.96         16.12         85.11
     3       27         16.12        -94.89      11990.99         48.83       9728.86       -135.96         16.12         85.11
     3       28         16.12        -94.89      11990.99         48.83       9728.87       -135.96         16.12         85.11
     3       29         16.12        -94.89      11990.99         48.83       9728.86       -135.96         16.12         85.11
     3       30         16.12        -94.89      11990.99         48.83       9728.85       -135.96         16.12         85.11
     3       31         16.12        -94.89      11990.99         48.83       9728.82       -135.96         16.12         85.11
     3       32         16.12        -94.89      11990.98         48.83       9728.77       -135.96         16.12         85.11
     3       33         16.12        -94.90      11990.98         48.83       9728.70       -135.96         16.12         85.11
     3       34         16.12        -94.90      11990.97         48.83       9728.67       -135.96         16.12         85.11
     3       35         16.12        -94.89      11990.98         48.83       9728.74       -135.96         16.12         85.11
     3       36         16.12        -94.89      11990.99         48.83       9728.79       -135.96         16.12         85.11
     3       37         16.12        -94.89      11990.99         48.83       9728.82       -135.96         16.12         85.11
     3       38         16.12        -94.89      11990.99         48.83       9728.83       -135.96         16.12         85.11
     3       39         16.12        -94.89      11990.99         48.83       9728.84       -135.96         16.12         85.11
     3       40         16.12        -94.89      11990.99         48.83       9728.83       -135.96         16.12         85.11
     3       41         16.12        -94.89      11990.99         48.83       9728.82       -135.96         16.12         85.11
     3       42         16.12        -94.89      11990.99         48.83       9728.79       -135.96         16.12         85.11
     3       43         16.12        -94.89      11990.98         48.83       9728.74       -135.96         16.12         85.11
     3       44         16.12        -94.90      11990.98         48.83       9728.67       -135.96         16.12         85.11
     3       45         16.12        -94.90      11990.97         48.83       9728.58       -135.96         16.12         85.10
     3       46         16.12        -94.90      11990.97         48.83       9728.65       -135.96         16.12         85.10
     3       47         16.12        -94.90      11990.98         48.83       9728.70       -135.96         16.12         85.11
     3       48         16.12        -94.89      11990.98         48.83       9728.73       -135.96         16.12         85.11
     3       49         16.12        -94.89      11990.98         48.83       9728.75       -135.96         16.12         85.11
     3       50         16.12        -94.89      11990.98         48.83       9728.75       -135.96         16.12         85.11
     3       51         16.12        -94.89      11990.98         48.83       9728.75       -135.96         16.12         85.11
     3       52         16.12        -94.89      11990.98         48.83       9728.73       -135.96         16.12         85.11
     3       53         16.12        -94.89      11990.98         48.83       9728.71       -135.96         16.12         85.11
     3       54         16.12        -94.90      11990.97         48.83       9728.66       -135.96         16.12         85.10
     3       55         16.12        -94.90      11990.97         48.83       9728.59       -135.96         16.12         85.10
     4        1         46.02        -62.11      11629.07         54.86       9882.51       -137.30         46.02        117.89
     4        2         46.02        -62.11      11629.08         54.86       9882.58       -137.30         46.02        117.89
     4        3         46.02        -62.11      11629.08         54.86       9882.63       -137.30         46.02        117.89
     4        4         46.02        -62.11      11629.08         54.86       9882.67       -137.30         46.02        117.89
     4        5         46.02        -62.11      11629.09         54.86       9882.68       -137.30         46.02        117.89
     4        6         46.02        -62.11      11629.09         54.86       9882.69       -137.30         46.02        117.89
     4        7         46.02        -62.11      11629.09         54.86       9882.68       -137.30         46.02        117.89
     4        8         46.02        -62.11      11629.08         54.86       9882.66       -137.30         46.02        117.89
     4        9         46.02        -62.11      11629.08         54.86       9882.62       -137.30         46.02        117.89
     4       10         46.02        -62.11      11629.08         54.86       9882.57       -137.30         46.02        117.89
     4       11         46.02        -62.11      11629.07         54.86       9882.49       -137.30         46.02        117.89
     4       12         46.02        -62.11      11629.08         54.86       9882.62       -137.30         46.02        117.89
     4       13         46.02        -62.11      11629.09         54.86       9882.69       -137.30         46.02        117.89
     4       14         46.02        -62.11      11629.09         54.86       9882.74       -137.30         46.02        117.89
     4       15         46.02        -62.11      11629.09         54.86       9882.78       -137.30         46.02        117.89
     4       16         46.02        -62.11      11629.10         54.86       9882.80       -137.30         46.02        117.89
     4       17         46.02        -62.11      11629.10         54.86       9882.81       -137.30         46.02        117.89
     4       18         46.02        -62.11      11629.10         54.86       9882.80       -137.30         46.02        117.89
     4       19         46.02        -62.11      11629.09         54.86       9882.78       -137.30         46.02        117.89
     4       20         46.02        -62.11      11629.09         54.86       9882.74       -137.30         46.02        117.89
     4       21         46.02        -62.11      11629.09         54.86       9882.69       -137.30         46.02        117.89
     4       22         46.02        -62.11      11629.08         54.86       9882.61       -137.30         46.02        117.89
     4       23         46.02        -62.11      11629.08         54.86       9882.65       -137.30         46.02        117.89
     4       24         46.02        -62.11      11629.09         54.86       9882.73       -137.30         46.02        117.89
     4       25         46.02        -62.11      11629.09         54.86       9882.78       -137.30         46.02        117.89
     4       26         46.02        -62.11      11629.10         54.86       9882.82       -137.30         46.02        117.89
     4       27         46.02        -62.11      11629.10         54.86       9882.84       -137.30         46.02        117.89
     4       28         46.02        -62.11      11629.10         54.86       9882.84       -137.30         46.02        117.89
     4       29         46.02        -62.11      11629.10         54.86       9882.84       -137.30         46.02        117.89
     4       30         46.02        -62.11      11629.10         54.86       9882.82       -137.30         46.02        117.89
     4       31         46.02        -62.11      11629.09         54.86       9882.78       -137.30         46.02        117.89
     4       32         46.02        -62.11      11629.09         54.86       9882.73       -137.30         46.02        117.89
     4       33         46.02        -62.11      11629.08         54.86       9882.65       -137.30         46.02        117.89
     4       34         46.02        -62.11      11629.08         54.86       9882.61       -137.30         46.02        117.89
     4       35         46.02        -62.11      11629.09         54.86       9882.69       -137.30         46.02        117.89
     4       36         46.02        -62.11      11629.09         54.86       9882.74       -137.30         46.02        117.89
     4       37         46.02        -62.11      11629.09         54.86       9882.78       -137.30         46.02        117.89
     4       38         46.02        -62.11      11629.10         54.86       9882.80       -137.30         46.02        117.89
     4       39         46.02        -62.11      11629.10         54.86       9882.81       -137.30         46.02        117.89
     4       40         46.02        -62.11      11629.10         54.86       9882.80       -137.30         46.02        117.89
     4       41         46.02        -62.11      11629.09         54.86       9882.78       -137.30         46.02        117.89
     4       42         46.02        -62.11      11629.09         54.86       9882.74       -137.30         46.02        117.89
     4       43         46.02        -62.11      11629.09         54.86       9882.69       -137.30         46.02        117.89
     4       44         46.02        -62.11      11629.08         54.86       9882.62       -137.30         46.02        117.89
     4       45         46.02        -62.11      11629.07         54.86       9882.49       -137.30         46.02        117.89