# Format:          MT3DResp_1.0
# Description:     Response file generated at Sat 26 Dec 2020 02:49:58 PM CST
Phase Convention:    lead
Receiver Location (m):      54
#          X            Y            Z
        0.00    -60000.00         0.00
        0.00    -40000.00         0.00
        0.00    -30000.00         0.00
        0.00    -25000.00         0.00
        0.00    -22500.00         0.00
        0.00    -21500.00         0.00
        0.00    -20500.00         0.00
        0.00    -19500.00         0.00
        0.00    -18500.00         0.00
        0.00    -17500.00         0.00
        0.00    -16500.00         0.00
        0.00    -15500.00         0.00
        0.00    -14500.00         0.00
        0.00    -13500.00         0.00
        0.00    -12500.00         0.00
        0.00    -11500.00         0.00
        0.00    -10500.00         0.00
        0.00     -9500.00         0.00
        0.00     -8500.00         0.00
        0.00     -7500.00         0.00
        0.00     -6500.00         0.00
        0.00     -5500.00         0.00
        0.00     -4500.00         0.00
        0.00     -3500.00         0.00
        0.00     -2500.00         0.00
        0.00     -1500.00         0.00
        0.00      -500.00         0.00
        0.00       500.00         0.00
        0.00      1500.00         0.00
        0.00      2500.00         0.00
        0.00      3500.00         0.00
        0.00      4500.00         0.00
        0.00      5500.00         0.00
        0.00      6500.00         0.00
        0.00      7500.00         0.00
        0.00      8500.00         0.00
        0.00      9500.00         0.00
        0.00     10500.00         0.00
        0.00     11500.00         0.00
        0.00     12500.00         0.00
        0.00     13500.00         0.00
        0.00     14500.00         0.00
        0.00     15500.00         0.00
        0.00     16500.00         0.00
        0.00     17500.00         0.00
        0.00     18500.00         0.00
        0.00     19500.00         0.00
        0.00     20500.00         0.00
        0.00     21500.00         0.00
        0.00     22500.00         0.00
        0.00     25000.00         0.00
        0.00     30000.00         0.00
        0.00     40000.00         0.00
        0.00     60000.00         0.00
Frequencies (Hz):       4
    1.00000e-04
    1.00000e-02
    1.00000e+00
    1.00000e+02
DataType:  Rho_Phs
DataComp:     4
RhoXY
PhsXY
RhoYX
PhsYX
Data Block:     216
# FreqNo.  RxNo.        RhoXX         PhsXX         RhoXY         PhsXY         RhoYX         PhsYX         RhoYY         PhsYY
     1        1          0.00        -12.07          1.00         76.49          1.11       -103.68          0.00        163.24
     1        2          0.00        170.57          0.76         76.91          1.15       -103.72          0.00        -15.32
     1        3          0.00        153.12          0.51         77.50          1.22       -103.72          0.00         27.07
     1        4          0.00        -13.86          0.35         78.04          1.29       -103.57          0.00        -15.76
     1        5          0.00        -17.21          0.27         78.38          1.35       -103.33          0.00        163.99
     1        6          0.00        -18.66          0.24         78.51          1.39       -103.16          0.00        163.85
     1        7          0.00        -18.47          0.21         78.57          1.45       -102.89          0.00        163.89
     1        8          0.00        -16.72          0.20         78.43          0.02       -100.38          0.00        163.37
     1        9          0.00        164.74          0.19         78.22          0.03        -98.94          0.00        -16.46
     1       10          0.00        -49.66          0.19         78.09          0.04        -98.22          0.00        -18.20
     1       11          0.00        -13.33          0.19         78.01          0.04        -97.77          0.00        165.71
     1       12          0.00        162.15          0.19         77.96          0.04        -97.47          0.00        -18.20
     1       13          0.00        -16.83          0.19         77.93          0.05        -97.24          0.00        -17.72
     1       14          0.00        -15.34          0.18         77.91          0.05        -97.05          0.00        -18.91
     1       15          0.00        164.83          0.18         77.90          0.05        -96.89          0.00        163.96
     1       16          0.00        166.63          0.18         77.90          0.05        -96.72          0.00        163.34
     1       17          0.00        -16.28          0.18         77.92          0.05        -96.56          0.00        -12.82
     1       18          0.00        -12.43          0.18         77.94          0.04        -96.40          0.00        -22.37
     1       19          0.00        163.67          0.18         77.96          0.04        -96.22          0.00        164.11
     1       20          0.00        -16.52          0.18         78.00          0.04        -96.04          0.00        -15.43
     1       21          0.00        163.59          0.18         78.05          0.04        -95.85          0.00        -18.61
     1       22          0.00        165.02          0.18         78.11          0.03        -95.66          0.00        164.16
     1       23          0.00        -11.98          0.18         78.19          0.03        -95.47          0.00        162.92
     1       24          0.00        162.73          0.18         78.29          0.02        -95.32          0.00       -177.67
     1       25          0.00        157.42          0.18         78.42          0.02        -95.25          0.00        -15.01
     1       26          0.00        144.21          0.18         78.59          0.01        -95.43          0.00        162.16
     1       27          0.00        148.96          0.18         78.86          0.00        -96.73          0.00        -19.00
     1       28          0.00        -10.67          0.21         78.90          6.69       -103.92          0.00        167.94
     1       29          0.00        -10.89          0.26         78.63          6.47       -104.00          0.00        -13.50
     1       30          0.00        -16.93          0.32         78.36          6.28       -104.09          0.00        -15.14
     1       31          0.00        165.94          0.38         78.13          6.11       -104.15          0.00        164.03
     1       32          0.00        160.98          0.44         77.94          5.96       -104.19          0.00        164.30
     1       33          0.00        -14.02          0.51         77.77          5.82       -104.21          0.00        -15.70
     1       34          0.00        165.11          0.58         77.63          5.70       -104.22          0.00        -16.41
     1       35          0.00        163.48          0.64         77.51          5.61       -104.23          0.00        164.56
     1       36          0.00        165.77          0.70         77.40          5.55       -104.24          0.00        -15.55
     1       37          0.00        165.56          0.76         77.31          5.52       -104.24          0.00        -16.59
     1       38          0.00        -16.02          0.82         77.23          5.52       -104.24          0.00        -17.34
     1       39          0.00        -15.97          0.87         77.16          5.56       -104.24          0.00        -14.05
     1       40          0.00        -11.79          0.92         77.09          5.63       -104.23          0.00        167.14
     1       41          0.00        111.33          0.96         77.03          5.73       -104.22          0.00        177.15
     1       42          0.00        -26.19          1.00         76.97          5.87       -104.21          0.00         -8.04
     1       43          0.00        -12.10          1.04         76.92          6.04       -104.20          0.00        165.41
     1       44          0.00        146.24          1.07         76.86          6.25       -104.17          0.00        162.91
     1       45          0.00        163.56          1.10         76.80          6.49       -104.12          0.00        -16.59
     1       46          0.00        162.22          1.12         76.74          6.77       -104.06          0.00        -13.60
     1       47          0.00        161.17          1.15         76.65          7.11       -103.95          0.00        167.00
     1       48          0.00        -14.89          1.16         76.56          0.10       -102.73          0.00        163.96
     1       49          0.00        -13.65          1.16         76.49          0.14       -102.15          0.00        -15.61
     1       50          0.00        160.32          1.16         76.46          0.19       -101.98          0.00        164.50
     1       51          0.00        -15.36          1.16         76.40          0.29       -102.03          0.00        163.69
     1       52          0.00        159.35          1.15         76.36          0.47       -102.47          0.00        163.44
     1       53          0.00       -165.60          1.12         76.34          0.73       -103.03          0.00        171.87
     1       54          0.00        -16.20          1.11         76.32          0.94       -103.41          0.00        -16.26
     2        1          0.00        163.01         15.76         40.05         15.72       -141.43          0.00        120.62
     2        2          0.00        132.16         14.31         44.22         15.85       -141.99          0.00         98.58
     2        3          0.00        -16.71         11.12         49.44         16.35       -142.67          0.00        -42.52
     2        4          0.00       -175.03          7.79         52.44         17.26       -142.89          0.00        -46.80
     2        5          0.00        -92.67          5.46         52.42         18.49       -142.58          0.00        146.03
     2        6          0.00        -82.22          4.42         51.23         19.35       -142.19          0.00        105.88
     2        7          0.00        172.69          3.23         47.68         20.78       -141.26          0.00        130.15
     2        8          0.00        127.69          2.27         42.44          0.44       -128.78          0.00        -32.12
     2        9          0.00        156.50          1.77         39.06          0.68       -127.16          0.00        160.43
     2       10          0.00        -65.01          1.51         37.75          0.86       -127.70          0.00        145.12
     2       11          0.00        -73.66          1.35         37.19          0.98       -128.62          0.00       -165.67
     2       12          0.00       -116.07          1.24         37.03          1.06       -129.48          0.00        -34.44
     2       13          0.00        -37.84          1.16         37.07          1.12       -130.17          0.00        143.19
     2       14          0.00          1.26          1.10         37.22          1.15       -130.64          0.00        -58.71
     2       15          0.00         72.40          1.07         37.39          1.18       -130.89          0.00         21.40
     2       16          0.00        101.07          1.05         37.53          1.19       -130.91          0.00        137.57
     2       17          0.00         -1.97          1.04         37.62          1.20       -130.71          0.00        -17.80
     2       18          0.00        -18.97          1.05         37.65          1.20       -130.26          0.00        -46.90
     2       19          0.00        105.37          1.07         37.63          1.19       -129.57          0.00        117.65
     2       20          0.00        -41.61          1.11         37.58          1.17       -128.61          0.00       -169.42
     2       21          0.00        -48.63          1.17         37.55          1.14       -127.33          0.00        111.94
     2       22          0.00        146.92          1.24         37.60          1.08       -125.71          0.00        137.43
     2       23          0.00        141.80          1.35         37.83          0.99       -123.70          0.00        -50.93
     2       24          0.00        -38.80          1.50         38.38          0.87       -121.24          0.00         17.01
     2       25          0.00        -48.41          1.71         39.46          0.69       -118.30          0.00       -160.49
     2       26          0.00        -63.40          2.05         41.56          0.45       -114.92          0.00        138.89
     2       27          0.00        125.89          2.72         46.43          0.17       -111.94          0.00        130.89
     2       28          0.00       -152.95          4.21         53.71        132.99       -134.19          0.00        139.24
     2       29          0.00        149.01          6.32         58.83        138.57       -132.06          0.00        -39.60
     2       30          0.00         73.83          8.49         61.23        135.06       -132.03          0.00        -32.49
     2       31          0.00        -31.56         10.74         62.52        132.07       -131.93          0.00        -35.75
     2       32          0.00       -101.46         13.03         63.18        129.46       -131.78          0.00        -31.80
     2       33          0.00       -105.15         15.30         63.44        127.21       -131.62          0.00        146.38
     2       34          0.00         54.34         17.50         63.42        125.39       -131.46          0.00        146.45
     2       35          0.00        -46.64         19.57         63.22        124.06       -131.31          0.00        145.64
     2       36          0.00       -110.60         21.47         62.88        123.28       -131.17          0.00        138.25
     2       37          0.00        -94.98         23.18         62.42        123.10       -131.05          0.00        155.74
     2       38          0.00         76.49         24.68         61.87        123.56       -130.96          0.00        -32.22
     2       39          0.00         79.66         25.93         61.23        124.69       -130.89          0.00        -40.13
     2       40          0.00         72.19         26.93         60.50        126.52       -130.85          0.00        -32.05
     2       41          0.00        -94.92         27.67         59.66        129.06       -130.83          0.00        150.33
     2       42          0.00       -101.07         28.12         58.70        132.31       -130.82          0.00        111.37
     2       43          0.00       -137.31         28.29         57.59        136.30       -130.82          0.00       -121.21
     2       44          0.00         19.92         28.15         56.28        141.03       -130.81          0.00         -4.74
     2       45          0.00         97.10         27.67         54.72        146.57       -130.76          0.00        139.70
     2       46          0.00        111.72         26.79         52.77        153.11       -130.63          0.00        -64.59
     2       47          0.00        131.35         25.23         50.04        161.30       -130.33          0.00        -23.49
     2       48          0.00        -84.20         23.19         46.98          2.54       -125.13          0.00        146.49
     2       49          0.00        -41.48         21.68         44.88          3.79       -123.76          0.00        109.72
     2       50          0.00        -36.13         20.80         43.63          4.91       -123.99          0.00        110.51
     2       51          0.00        -21.76         19.44         41.73          7.31       -125.94          0.00       -131.22
     2       52          0.00         33.59         18.07         39.99         10.55       -130.14          0.00        -49.72
     2       53          0.00        158.89         16.81         38.88         13.74       -135.27          0.00        -29.32
     2       54          0.00        161.25         15.95         38.57         15.35       -138.96          0.00        149.86
     3        1          0.00       -176.10          9.95         45.01          9.95       -134.99          0.00        -67.03
     3        2          0.00         44.53          9.95         45.02          9.95       -134.99          0.00       -114.23
     3        3          0.00        -67.02          9.96         45.03          9.95       -134.98          0.00        -71.45
     3        4          0.00        -46.75         10.05         45.42          9.93       -134.99          0.00        -95.75
     3        5          0.00         20.16          9.82         47.88          9.89       -135.24          0.00        164.20
     3        6          0.00         53.72          8.62         50.62          9.86       -135.69          0.00       -167.61
     3        7          0.00         68.36          4.02         49.02         10.39       -137.36          0.00        148.03
     3        8          0.00         16.40          1.43         42.11          1.02       -130.20          0.00       -142.36
     3        9          0.00       -125.82          0.99         43.61          1.00       -135.09          0.00        -86.39
     3       10          0.00        166.22          0.99         44.65          0.99       -135.23          0.00       -128.57
     3       11          0.00         87.43          0.99         44.76          0.99       -135.21          0.00       -169.29
     3       12          0.00         30.65          0.99         44.78          0.99       -135.21          0.00         63.69
     3       13          0.00         -9.73          0.99         44.78          0.99       -135.21          0.00       -176.00
     3       14          0.00        -20.17          0.99         44.78          0.99       -135.21          0.00        -75.10
     3       15          0.00         89.05          0.99         44.79          0.99       -135.21          0.00         -8.96
     3       16          0.00         45.64          0.99         44.79          0.99       -135.21          0.00        106.15
     3       17          0.00         55.73          0.99         44.79          0.99       -135.21          0.00        -99.07
     3       18          0.00        110.10          0.99         44.78          0.99       -135.21          0.00         87.43
     3       19          0.00        142.21          0.99         44.78          0.99       -135.21          0.00        -88.24
     3       20          0.00         39.50          0.99         44.78          0.99       -135.21          0.00         82.29
     3       21          0.00         45.24          0.99         44.78          0.99       -135.21          0.00       -125.85
     3       22          0.00         80.09          0.99         44.77          0.99       -135.21          0.00       -138.41
     3       23          0.00        157.32          0.99         44.76          0.99       -135.21          0.00       -175.49
     3       24          0.00       -137.13          0.99         44.73          0.99       -135.21          0.00        172.73
     3       25          0.00        -34.10          0.98         44.50          0.99       -135.24          0.00        135.42
     3       26          0.00         35.13          1.00         42.68          1.00       -134.98          0.00        -67.04
     3       27          0.00         47.75          1.71         40.27          0.95       -129.69          0.00        -78.48
     3       28          0.00        169.51          8.01         54.69         55.66       -150.45          0.00         55.89
     3       29          0.00       -170.25         35.15         64.05        102.39       -135.97          0.00        143.48
     3       30          0.00        -63.96         60.39         61.05        100.97       -135.50          0.00        -85.79
     3       31          0.00         60.77         78.07         57.61        100.53       -135.22          0.00        171.55
     3       32          0.00        138.87         89.52         54.81        100.42       -135.05          0.00        -91.24
     3       33          0.00       -157.22         96.73         52.67        100.43       -134.96          0.00         88.53
     3       34          0.00        -20.70        101.17         51.07        100.46       -134.90          0.00         64.31
     3       35          0.00         -5.08        103.82         49.92        100.48       -134.88          0.00        -94.66
     3       36          0.00        -11.25        105.29         49.13        100.47       -134.88          0.00        169.66
     3       37          0.00         55.31        105.94         48.66        100.41       -134.90          0.00         78.08
     3       38          0.00       -116.06        105.96         48.47        100.32       -134.95          0.00        -86.82
     3       39          0.00       -118.13        105.38         48.55        100.20       -135.03          0.00         83.37
     3       40          0.00        -74.93        104.12         48.88        100.10       -135.15          0.00         41.24
     3       41          0.00         29.25        101.98         49.48        100.07       -135.33          0.00       -103.05
     3       42          0.00         81.61         98.55         50.35        100.22       -135.59          0.00        -87.84
     3       43          0.00         68.72         93.23         51.47        100.77       -135.96          0.00        150.09
     3       44          0.00        -53.77         85.15         52.78        102.11       -136.45          0.00         35.20
     3       45          0.00        -31.59         73.15         54.01        105.08       -137.08          0.00        -66.53
     3       46          0.00        -31.26         56.14         54.23        111.63       -137.74          0.00         79.42
     3       47          0.00         -9.06         33.17         49.28        127.58       -137.87          0.00       -169.43
     3       48          0.00         89.44         17.17         41.91          6.74       -123.79          0.00        142.83
     3       49          0.00         38.00         11.64         40.21          9.60       -129.61          0.00        -68.10
     3       50          0.00         16.27         10.27         41.66         10.03       -132.65          0.00         96.84
     3       51          0.00        -76.86          9.81         44.41         10.07       -134.73          0.00        109.43
     3       52          0.00        121.12          9.93         44.98          9.96       -135.00          0.00        -26.10
     3       53          0.00       -169.70          9.94         45.01          9.95       -134.99          0.00        -19.92
     3       54          0.00         92.58          9.95         45.01          9.95       -134.99          0.00       -127.28
     4        1          0.00        128.24          9.95         43.87          9.95       -136.13          0.00          0.72
     4        2          0.00        130.21          9.95         43.87          9.95       -136.13          0.00         48.80
     4        3          0.00       -113.00          9.95         43.87          9.95       -136.13          0.00       -156.63
     4        4          0.00       -140.72          9.95         43.87          9.95       -136.13          0.00       -108.37
     4        5          0.00        -37.80          9.95         43.88          9.95       -136.13          0.00        139.35
     4        6          0.00        -73.16          9.95         44.00          9.95       -136.13          0.00        172.69
     4        7          0.00       -118.69          6.17         48.03          9.95       -136.17          0.00         50.73
     4        8          0.00         84.54          1.04         30.68          1.86       -130.32          0.00        121.61
     4        9          0.00        118.52          0.90         31.91          0.90       -148.08          0.00         43.69
     4       10          0.00        111.99          0.90         31.92          0.90       -148.08          0.00       -130.24
     4       11          0.00       -131.23          0.90         31.92          0.90       -148.08          0.00       -153.80
     4       12          0.00       -146.32          0.90         31.92          0.90       -148.08          0.00        151.93
     4       13          0.00       -174.91          0.90         31.92          0.90       -148.08          0.00        122.82
     4       14          0.00        135.24          0.90         31.92          0.90       -148.08          0.00        -39.98
     4       15          0.00        147.59          0.90         31.92          0.90       -148.08          0.00        -81.44
     4       16          0.00       -177.89          0.90         31.92          0.90       -148.08          0.00       -140.37
     4       17          0.00       -105.36          0.90         31.92          0.90       -148.08          0.00         53.68
     4       18          0.00       -101.76          0.90         31.92          0.90       -148.08          0.00       -176.69
     4       19          0.00         10.03          0.90         31.92          0.90       -148.08          0.00        130.86
     4       20          0.00        -16.45          0.90         31.92          0.90       -148.08          0.00        166.98
     4       21          0.00       -103.22          0.90         31.92          0.90       -148.08          0.00        -99.58
     4       22          0.00       -161.23          0.90         31.92          0.90       -148.08          0.00        -57.13
     4       23          0.00        175.24          0.90         31.92          0.90       -148.08          0.00        157.24
     4       24          0.00         13.05          0.90         31.92          0.90       -148.08          0.00        -50.54
     4       25          0.00         44.63          0.90         31.92          0.90       -148.08          0.00        108.52
     4       26          0.00         91.98          0.90         31.91          0.90       -148.08          0.00        175.32
     4       27          0.00          9.85          1.07         30.10          0.90       -148.00          0.00        -82.29
     4       28          0.00        132.72         34.77         57.00          3.44       -172.49          0.00        173.32
     4       29          0.00        135.37         99.38         46.46         99.98       -135.12          0.00        165.97
     4       30          0.00          8.91        100.51         45.06         99.99       -135.12          0.00        -31.54
     4       31          0.00        135.42        100.17         44.90         99.99       -135.12          0.00        122.93
     4       32          0.00        101.26        100.06         44.88         99.99       -135.12          0.00         49.39
     4       33          0.00        -25.40        100.03         44.88         99.99       -135.12          0.00        -68.75
     4       34          0.00         51.30        100.02         44.88         99.99       -135.12          0.00        101.63
     4       35          0.00       -173.52        100.02         44.88         99.99       -135.12          0.00       -101.63
     4       36          0.00        -91.06        100.01         44.88         99.99       -135.12          0.00        154.11
     4       37          0.00        -61.55        100.01         44.88         99.99       -135.12          0.00       -104.43
     4       38          0.00        -56.76        100.01         44.88         99.99       -135.12          0.00        129.56
     4       39          0.00        -59.48        100.01         44.88         99.99       -135.12          0.00        -77.17
     4       40          0.00        -64.22        100.01         44.88         99.99       -135.12          0.00        119.99
     4       41          0.00        156.95        100.02         44.88         99.99       -135.12          0.00         39.24
     4       42          0.00         56.71        100.02         44.88         99.99       -135.12          0.00        -34.24
     4       43          0.00         35.32        100.04         44.88         99.99       -135.12          0.00         -1.76
     4       44          0.00        117.78        100.11         44.89         99.99       -135.12          0.00       -150.60
     4       45          0.00       -122.27        100.37         45.00         99.99       -135.12          0.00        -92.97
     4       46          0.00          3.92         99.35         46.05         99.94       -135.13          0.00       -105.98
     4       47          0.00         44.79         50.31         48.80        100.10       -135.46          0.00         75.92
     4       48          0.00        -77.64         12.96         41.84         12.02       -129.95          0.00         21.16
     4       49          0.00        -63.01          9.95         43.76          9.95       -136.13          0.00       -137.86
     4       50          0.00          1.39          9.95         43.87          9.95       -136.13          0.00       -177.66
     4       51          0.00        159.86          9.95         43.87          9.95       -136.13          0.00       -163.31